@<TRIPOS>MOLECULE
ZINC000019364242
33    32    1     0     0
SMALL
USER_CHARGES
@<TRIPOS>ATOM
1      O1     -2.1114    2.6053   -2.1459 O.co2    1 ZINC000019364242   -0.7000
2      C2     -1.2136    2.9197   -1.3832 C.2      1 ZINC000019364242    0.4700
3      O3     -0.5403    3.9106   -1.6097 O.co2    1 ZINC000019364242   -0.7100
4      C4     -0.9403    2.0870   -0.1573 C.3      1 ZINC000019364242   -0.0100
5      N5     -1.9578    1.0336   -0.0439 N.3      1 ZINC000019364242   -0.4800
6      C6     -3.3045    1.6114    0.0594 C.3      1 ZINC000019364242    0.0200
7      C7     -3.4294    2.3814    1.3757 C.3      1 ZINC000019364242    0.0000
8      N8     -4.7320    3.0587    1.4250 N.4      1 ZINC000019364242   -0.3300
9      H9     -4.8434    3.6339    0.6035 H        1 ZINC000019364242    0.4300
10     C10    -5.8042    2.0555    1.4693 C.3      1 ZINC000019364242   -0.0800
11     C11    -7.1416    2.7461    1.3961 C.2      1 ZINC000019364242    0.4900
12     O12    -7.1966    3.9613    1.3145 O.co2    1 ZINC000019364242   -0.6700
13     O13    -8.1688    2.0895    1.4184 O.co2    1 ZINC000019364242   -0.6800
14     C14    -4.8004    3.9018    2.6260 C.3      1 ZINC000019364242   -0.0800
15     C15    -3.8129    5.0334    2.5022 C.2      1 ZINC000019364242    0.4900
16     O16    -3.2029    5.1989    1.4596 O.co2    1 ZINC000019364242   -0.6600
17     O17    -3.6239    5.7835    3.4447 O.co2    1 ZINC000019364242   -0.6800
18     C18    -1.8725    0.0957   -1.1714 C.3      1 ZINC000019364242   -0.0100
19     C19    -0.6634   -0.7872   -0.9999 C.2      1 ZINC000019364242    0.5000
20     O20     0.0000   -0.7209    0.0209 O.co2    1 ZINC000019364242   -0.6900
21     O21    -0.3486   -1.5679   -1.8819 O.co2    1 ZINC000019364242   -0.7300
22     H22     0.0465    1.6315   -0.2401 H        1 ZINC000019364242    0.0800
23     H23    -0.9743    2.7218    0.7281 H        1 ZINC000019364242    0.0600
24     H24    -3.4735    2.2906   -0.7762 H        1 ZINC000019364242    0.0900
25     H25    -4.0456    0.8126    0.0340 H        1 ZINC000019364242    0.0600
26     H26    -3.3491    1.6869    2.2119 H        1 ZINC000019364242    0.1000
27     H27    -2.6322    3.1219    1.4405 H        1 ZINC000019364242    0.1400
28     H28    -5.7000    1.3748    0.6244 H        1 ZINC000019364242    0.1200
29     H29    -5.7366    1.4923    2.4001 H        1 ZINC000019364242    0.1100
30     H30    -5.8069    4.3074    2.7284 H        1 ZINC000019364242    0.1400
31     H31    -4.5588    3.3032    3.5044 H        1 ZINC000019364242    0.1000
32     H32    -2.7712   -0.5204   -1.2002 H        1 ZINC000019364242    0.0500
33     H33    -1.7851    0.6546   -2.1031 H        1 ZINC000019364242    0.0700
@<TRIPOS>BOND
1     1     2     ar
2     2     3     ar
3     2     4     1
4     4     5     1
5     4     22    1
6     4     23    1
7     5     6     1
8     5     18    1
9     6     7     1
10    6     24    1
11    6     25    1
12    7     8     1
13    7     26    1
14    7     27    1
15    8     9     1
16    8     10    1
17    8     14    1
18    10    11    1
19    10    28    1
20    10    29    1
21    11    12    ar
22    11    13    ar
23    14    15    1
24    14    30    1
25    14    31    1
26    15    16    ar
27    15    17    ar
28    18    19    1
29    18    32    1
30    18    33    1
31    19    20    ar
32    19    21    ar
@<TRIPOS>SUBSTRUCTURE
1   ZINC000019364242 1     RESIDUE    1   A     ZIN   1

@<TRIPOS>MOLECULE
ZINC000019364242
32    31    1     0     0
SMALL
USER_CHARGES
@<TRIPOS>ATOM
1      O1     -3.0768    3.3059   -2.0798 O.co2    1 ZINC000019364242   -0.6900
2      C2     -2.1704    3.8406   -1.4641 C.2      1 ZINC000019364242    0.4700
3      O3     -1.8290    4.9766   -1.7461 O.co2    1 ZINC000019364242   -0.7400
4      C4     -1.4762    3.0997   -0.3505 C.3      1 ZINC000019364242    0.0000
5      N5     -2.1368    1.8050   -0.1375 N.3      1 ZINC000019364242   -0.4900
6      C6     -3.5494    1.9875    0.2219 C.3      1 ZINC000019364242    0.0500
7      C7     -3.6441    2.6733    1.5863 C.3      1 ZINC000019364242    0.0500
8      N8     -5.0567    2.8558    1.9456 N.3      1 ZINC000019364242   -0.4900
9      C9     -5.7173    1.5611    2.1586 C.3      1 ZINC000019364242    0.0000
10     C10    -5.0183    0.8169    3.2671 C.2      1 ZINC000019364242    0.4700
11     O11    -4.1066    1.3483    3.8777 O.co2    1 ZINC000019364242   -0.6900
12     O12    -5.3647   -0.3165    3.5533 O.co2    1 ZINC000019364242   -0.7400
13     C13    -5.1921    3.7168    3.1281 C.3      1 ZINC000019364242   -0.0100
14     C14    -6.6130    4.2082    3.2317 C.2      1 ZINC000019364242    0.5000
15     O15    -7.4367    3.8716    2.3982 O.co2    1 ZINC000019364242   -0.6900
16     O16    -6.9388    4.9423    4.1489 O.co2    1 ZINC000019364242   -0.7500
17     C17    -2.0014    0.9440   -1.3200 C.3      1 ZINC000019364242   -0.0100
18     C18    -0.6063    0.3763   -1.3710 C.2      1 ZINC000019364242    0.5000
19     O19     0.1692    0.5813   -0.4528 O.co2    1 ZINC000019364242   -0.6900
20     O20    -0.2531   -0.2879   -2.3304 O.co2    1 ZINC000019364242   -0.7500
21     H21    -0.4326    2.9353   -0.6187 H        1 ZINC000019364242    0.0700
22     H22    -1.5276    3.6888    0.5652 H        1 ZINC000019364242    0.0600
23     H23    -4.0387    2.6061   -0.5305 H        1 ZINC000019364242    0.0600
24     H24    -4.0409    1.0157    0.2688 H        1 ZINC000019364242    0.0400
25     H25    -3.1548    2.0546    2.3386 H        1 ZINC000019364242    0.0700
26     H26    -3.1526    3.6451    1.5394 H        1 ZINC000019364242    0.0400
27     H27    -6.7595    1.7256    2.4322 H        1 ZINC000019364242    0.0700
28     H28    -5.6707    0.9742    1.2413 H        1 ZINC000019364242    0.0500
29     H29    -4.9383    3.1480    4.0226 H        1 ZINC000019364242    0.0600
30     H30    -4.5187    4.5689    3.0361 H        1 ZINC000019364242    0.0400
31     H31    -2.7232    0.1294   -1.2609 H        1 ZINC000019364242    0.0400
32     H32    -2.1881    1.5304   -2.2197 H        1 ZINC000019364242    0.0600
@<TRIPOS>BOND
1     1     2     ar
2     2     3     ar
3     2     4     1
4     4     5     1
5     4     21    1
6     4     22    1
7     5     6     1
8     5     17    1
9     6     7     1
10    6     23    1
11    6     24    1
12    7     8     1
13    7     25    1
14    7     26    1
15    8     9     1
16    8     13    1
17    9     10    1
18    9     27    1
19    9     28    1
20    10    11    ar
21    10    12    ar
22    13    14    1
23    13    29    1
24    13    30    1
25    14    15    ar
26    14    16    ar
27    17    18    1
28    17    31    1
29    17    32    1
30    18    19    ar
31    18    20    ar
@<TRIPOS>SUBSTRUCTURE
1   ZINC000019364242 1     RESIDUE    1   A     ZIN   1
