@<TRIPOS>MOLECULE
ZINC000100009278
45    47    1     0     0
SMALL
USER_CHARGES
@<TRIPOS>ATOM
1      C1     -0.0178    1.4648    0.0101 C.3      1 ZINC000100009278   -0.0600
2      N2      0.0021   -0.0041    0.0020 N.4      1 ZINC000100009278   -0.3900
3      H3     -0.9343   -0.3722    0.0781 H        1 ZINC000100009278    0.4300
4      C4      0.6661   -0.5120   -1.2279 C.3      1 ZINC000100009278    0.0400
5      H5      0.0110   -0.4692   -2.0980 H        1 ZINC000100009278    0.1500
6      C6      1.0698   -1.9611   -0.8708 C.3      1 ZINC000100009278   -0.1500
7      C7      1.1996   -1.9678    0.6666 C.3      1 ZINC000100009278   -0.1400
8      C8      0.8594   -0.5222    1.1012 C.3      1 ZINC000100009278    0.0300
9      H9      0.3598   -0.4897    2.0694 H        1 ZINC000100009278    0.1500
10     C10     2.1645    0.2898    1.0956 C.3      1 ZINC000100009278   -0.1400
11     C11     2.9067    0.0264   -0.2177 C.3      1 ZINC000100009278    0.0700
12     H12     3.7797    0.6763   -0.2774 H        1 ZINC000100009278    0.1200
13     O13     3.3334   -1.3608   -0.2615 O.3      1 ZINC000100009278   -0.3400
14     C14     4.4537   -1.6323   -0.9492 C.2      1 ZINC000100009278    0.4600
15     O15     5.0578   -0.7404   -1.4965 O.2      1 ZINC000100009278   -0.4700
16     C16     4.9580   -3.0496   -1.0387 C.3      1 ZINC000100009278   -0.0400
17     H17     5.1666   -3.4250   -0.0369 H        1 ZINC000100009278    0.1300
18     C18     3.8952   -3.9282   -1.7016 C.3      1 ZINC000100009278    0.0900
19     O19     4.3239   -5.2913   -1.6817 O.3      1 ZINC000100009278   -0.5600
20     C20     6.2209   -3.0825   -1.8604 C.ar     1 ZINC000100009278   -0.0800
21     C21     6.2037   -2.6457   -3.1718 C.ar     1 ZINC000100009278   -0.0900
22     C22     7.3621   -2.6758   -3.9256 C.ar     1 ZINC000100009278   -0.1200
23     C23     8.5378   -3.1423   -3.3677 C.ar     1 ZINC000100009278   -0.1100
24     C24     8.5551   -3.5782   -2.0560 C.ar     1 ZINC000100009278   -0.1200
25     C25     7.3977   -3.5441   -1.3010 C.ar     1 ZINC000100009278   -0.1000
26     C26     1.9480    0.3125   -1.4271 C.3      1 ZINC000100009278   -0.1600
27     H27     1.0021    1.8424   -0.0620 H        1 ZINC000100009278    0.1300
28     H28    -0.5994    1.8249   -0.8385 H        1 ZINC000100009278    0.1200
29     H29    -0.4710    1.8169    0.9368 H        1 ZINC000100009278    0.1300
30     H30     0.2961   -2.6598   -1.1892 H        1 ZINC000100009278    0.0900
31     H31     2.0240   -2.2139   -1.3332 H        1 ZINC000100009278    0.1200
32     H32     0.4897   -2.6698    1.1041 H        1 ZINC000100009278    0.1000
33     H33     2.2175   -2.2240    0.9602 H        1 ZINC000100009278    0.1300
34     H34     1.9340    1.3520    1.1780 H        1 ZINC000100009278    0.1100
35     H35     2.7885   -0.0163    1.9353 H        1 ZINC000100009278    0.1200
36     H36     2.9555   -3.8349   -1.1573 H        1 ZINC000100009278    0.0600
37     H37     3.7509   -3.6078   -2.7334 H        1 ZINC000100009278    0.0500
38     H38     3.6973   -5.9066   -2.0865 H        1 ZINC000100009278    0.3900
39     H39     5.2852   -2.2812   -3.6077 H        1 ZINC000100009278    0.1100
40     H40     7.3486   -2.3352   -4.9504 H        1 ZINC000100009278    0.1200
41     H41     9.4426   -3.1665   -3.9568 H        1 ZINC000100009278    0.1300
42     H42     9.4735   -3.9430   -1.6203 H        1 ZINC000100009278    0.1300
43     H43     7.4112   -3.8847   -0.2762 H        1 ZINC000100009278    0.1200
44     H44     2.4368    0.0219   -2.3571 H        1 ZINC000100009278    0.1200
45     H45     1.7047    1.3746   -1.4569 H        1 ZINC000100009278    0.1100
@<TRIPOS>BOND
1     1     2     1
2     1     27    1
3     1     28    1
4     1     29    1
5     2     3     1
6     2     8     1
7     2     4     1
8     4     5     1
9     4     26    1
10    4     6     1
11    6     7     1
12    6     30    1
13    6     31    1
14    7     8     1
15    7     32    1
16    7     33    1
17    8     9     1
18    8     10    1
19    10    11    1
20    10    34    1
21    10    35    1
22    11    12    1
23    11    13    1
24    11    26    1
25    13    14    1
26    14    15    2
27    14    16    1
28    16    17    1
29    16    18    1
30    16    20    1
31    18    19    1
32    18    36    1
33    18    37    1
34    19    38    1
35    20    25    ar
36    20    21    ar
37    21    22    ar
38    21    39    1
39    22    23    ar
40    22    40    1
41    23    24    ar
42    23    41    1
43    24    25    ar
44    24    42    1
45    25    43    1
46    26    44    1
47    26    45    1
@<TRIPOS>SUBSTRUCTURE
1   ZINC000100009278 1     RESIDUE    1   A     ZIN   1

@<TRIPOS>MOLECULE
ZINC000100009278
45    47    1     0     0
SMALL
USER_CHARGES
@<TRIPOS>ATOM
1      C1     -0.0178    1.4648    0.0101 C.3      1 ZINC000100009278   -0.0400
2      N2      0.0021   -0.0041    0.0020 N.4      1 ZINC000100009278   -0.4000
3      H3      0.4597   -0.3483   -0.8287 H        1 ZINC000100009278    0.4200
4      C4     -1.3788   -0.5471    0.1024 C.3      1 ZINC000100009278    0.0400
5      H5     -2.0750   -0.0279   -0.5562 H        1 ZINC000100009278    0.1500
6      C6     -1.7469   -0.3755    1.5942 C.3      1 ZINC000100009278   -0.1400
7      C7     -0.3941   -0.3612    2.3360 C.3      1 ZINC000100009278   -0.1400
8      C8      0.6720   -0.5254    1.2231 C.3      1 ZINC000100009278    0.0300
9      H9      1.5929    0.0109    1.4522 H        1 ZINC000100009278    0.1500
10     C10     0.9132   -2.0300    1.0214 C.3      1 ZINC000100009278   -0.1400
11     C11    -0.4399   -2.7389    0.9133 C.3      1 ZINC000100009278    0.0700
12     H12    -0.2807   -3.7884    0.6658 H        1 ZINC000100009278    0.1200
13     O13    -1.1382   -2.6427    2.1827 O.3      1 ZINC000100009278   -0.3400
14     C14    -1.9724   -3.6463    2.4969 C.2      1 ZINC000100009278    0.4600
15     O15    -2.1144   -4.5744    1.7365 O.2      1 ZINC000100009278   -0.4700
16     C16    -2.7319   -3.6154    3.7982 C.3      1 ZINC000100009278   -0.0400
17     H17    -2.0274   -3.5885    4.6295 H        1 ZINC000100009278    0.1300
18     C18    -3.6194   -2.3699    3.8413 C.3      1 ZINC000100009278    0.0900
19     O19    -4.2504   -2.2786    5.1202 O.3      1 ZINC000100009278   -0.5600
20     C20    -3.5912   -4.8486    3.9077 C.ar     1 ZINC000100009278   -0.0800
21     C21    -4.5609   -5.1020    2.9556 C.ar     1 ZINC000100009278   -0.0900
22     C22    -5.3491   -6.2332    3.0560 C.ar     1 ZINC000100009278   -0.1200
23     C23    -5.1674   -7.1111    4.1082 C.ar     1 ZINC000100009278   -0.1100
24     C24    -4.1971   -6.8581    5.0598 C.ar     1 ZINC000100009278   -0.1200
25     C25    -3.4060   -5.7291    4.9570 C.ar     1 ZINC000100009278   -0.1000
26     C26    -1.3007   -2.0506   -0.2072 C.3      1 ZINC000100009278   -0.1600
27     H27     1.0047    1.8421    0.0024 H        1 ZINC000100009278    0.1200
28     H28    -0.5450    1.8259   -0.8730 H        1 ZINC000100009278    0.1200
29     H29    -0.5280    1.8163    0.9069 H        1 ZINC000100009278    0.1200
30     H30    -2.2743    0.5657    1.7489 H        1 ZINC000100009278    0.0900
31     H31    -2.3565   -1.2131    1.9332 H        1 ZINC000100009278    0.1200
32     H32    -0.2564    0.5871    2.8554 H        1 ZINC000100009278    0.0900
33     H33    -0.3386   -1.1918    3.0397 H        1 ZINC000100009278    0.1300
34     H34     1.4827   -2.1889    0.1056 H        1 ZINC000100009278    0.1100
35     H35     1.4671   -2.4282    1.8715 H        1 ZINC000100009278    0.1200
36     H36    -3.0088   -1.4827    3.6733 H        1 ZINC000100009278    0.0600
37     H37    -4.3809   -2.4393    3.0646 H        1 ZINC000100009278    0.0500
38     H38    -4.8297   -1.5107    5.2191 H        1 ZINC000100009278    0.3900
39     H39    -4.7028   -4.4161    2.1335 H        1 ZINC000100009278    0.1100
40     H40    -6.1072   -6.4308    2.3126 H        1 ZINC000100009278    0.1200
41     H41    -5.7837   -7.9944    4.1871 H        1 ZINC000100009278    0.1300
42     H42    -4.0554   -7.5438    5.8821 H        1 ZINC000100009278    0.1300
43     H43    -2.6479   -5.5315    5.7005 H        1 ZINC000100009278    0.1200
44     H44    -2.3026   -2.4798   -0.2131 H        1 ZINC000100009278    0.1200
45     H45    -0.8290   -2.2067   -1.1774 H        1 ZINC000100009278    0.1100
@<TRIPOS>BOND
1     1     2     1
2     1     27    1
3     1     28    1
4     1     29    1
5     2     3     1
6     2     8     1
7     2     4     1
8     4     5     1
9     4     26    1
10    4     6     1
11    6     7     1
12    6     30    1
13    6     31    1
14    7     8     1
15    7     32    1
16    7     33    1
17    8     9     1
18    8     10    1
19    10    11    1
20    10    34    1
21    10    35    1
22    11    12    1
23    11    13    1
24    11    26    1
25    13    14    1
26    14    15    2
27    14    16    1
28    16    17    1
29    16    18    1
30    16    20    1
31    18    19    1
32    18    36    1
33    18    37    1
34    19    38    1
35    20    25    ar
36    20    21    ar
37    21    22    ar
38    21    39    1
39    22    23    ar
40    22    40    1
41    23    24    ar
42    23    41    1
43    24    25    ar
44    24    42    1
45    25    43    1
46    26    44    1
47    26    45    1
@<TRIPOS>SUBSTRUCTURE
1   ZINC000100009278 1     RESIDUE    1   A     ZIN   1
