@<TRIPOS>MOLECULE
ZINC000013512456
28    28    1     0     0
SMALL
USER_CHARGES
@<TRIPOS>ATOM
1      C1     -7.4232    1.4566   -0.0725 C.3      1 ZINC000013512456   -0.2000
2      C2     -6.0432    1.8843    0.3560 C.2      1 ZINC000013512456    0.3600
3      O3     -5.8630    2.9975    0.7880 O.2      1 ZINC000013512456   -0.3900
4      C4     -4.8880    0.9229    0.2454 C.3      1 ZINC000013512456   -0.0600
5      C5     -4.8426    0.0704    1.4446 C.1      1 ZINC000013512456    0.2000
6      N6     -4.8076   -0.5875    2.3701 N.1      1 ZINC000013512456   -0.3700
7      C7     -3.5999    1.6964    0.1300 C.2      1 ZINC000013512456    0.5200
8      O8     -3.6181    2.9092    0.1368 O.2      1 ZINC000013512456   -0.4600
9      N9     -2.4276    1.0407    0.0192 N.am     1 ZINC000013512456   -0.6700
10     C10    -1.2238    1.7540    0.0232 C.ar     1 ZINC000013512456    0.1800
11     C11    -1.1043    2.9130    0.7788 C.ar     1 ZINC000013512456   -0.1200
12     C12     0.0870    3.6117    0.7851 C.ar     1 ZINC000013512456   -0.0500
13     C13     1.1586    3.1609    0.0364 C.ar     1 ZINC000013512456   -0.2000
14     C14     2.4572    3.9255    0.0460 C.3      1 ZINC000013512456    0.5100
15     F15     3.2740    3.4444    1.0749 F        1 ZINC000013512456   -0.1800
16     F16     3.1064    3.7576   -1.1818 F        1 ZINC000013512456   -0.1800
17     F17     2.1969    5.2842    0.2539 F        1 ZINC000013512456   -0.1800
18     C18     1.0410    2.0103   -0.7215 C.ar     1 ZINC000013512456   -0.0500
19     C19    -0.1476    1.3071   -0.7321 C.ar     1 ZINC000013512456   -0.1400
20     H20    -7.3896    0.4280   -0.4316 H        1 ZINC000013512456    0.0900
21     H21    -8.1041    1.5231    0.7760 H        1 ZINC000013512456    0.1000
22     H22    -7.7740    2.1092   -0.8720 H        1 ZINC000013512456    0.1100
23     H23    -5.0178    0.2992   -0.6390 H        1 ZINC000013512456    0.1700
24     H24    -2.4184    0.0743   -0.0634 H        1 ZINC000013512456    0.4200
25     H25    -1.9407    3.2652    1.3644 H        1 ZINC000013512456    0.1500
26     H26     0.1819    4.5109    1.3758 H        1 ZINC000013512456    0.1400
27     H27     1.8797    1.6610   -1.3055 H        1 ZINC000013512456    0.1400
28     H28    -0.2386    0.4081   -1.3237 H        1 ZINC000013512456    0.1400
@<TRIPOS>BOND
1     1     2     1
2     1     20    1
3     1     21    1
4     1     22    1
5     2     3     2
6     2     4     1
7     4     5     1
8     4     7     1
9     4     23    1
10    5     6     3
11    7     8     2
12    7     9     am
13    9     10    1
14    9     24    1
15    10    19    ar
16    10    11    ar
17    11    12    ar
18    11    25    1
19    12    13    ar
20    12    26    1
21    13    14    1
22    13    18    ar
23    14    15    1
24    14    16    1
25    14    17    1
26    18    19    ar
27    18    27    1
28    19    28    1
@<TRIPOS>SUBSTRUCTURE
1   ZINC000013512456 1     RESIDUE    1   A     ZIN   1

@<TRIPOS>MOLECULE
ZINC000013512456
27    27    1     0     0
SMALL
USER_CHARGES
@<TRIPOS>ATOM
1      C1     -5.0065   -3.0845    0.7994 C.3      1 ZINC000013512456   -0.1600
2      C2     -3.7392   -2.2753    0.8999 C.2      1 ZINC000013512456    0.3500
3      O3     -2.6466   -2.8063    1.4747 O.3      1 ZINC000013512456   -0.6100
4      C4     -3.7010   -1.0045    0.4077 C.2      1 ZINC000013512456   -0.4200
5      C5     -4.8652   -0.4386   -0.2048 C.1      1 ZINC000013512456    0.3000
6      N6     -5.7887    0.0103   -0.6907 N.1      1 ZINC000013512456   -0.5400
7      C7     -2.4649   -0.2151    0.5057 C.2      1 ZINC000013512456    0.5900
8      O8     -1.4758   -0.6959    1.0261 O.2      1 ZINC000013512456   -0.5200
9      N9     -2.4272    1.0412    0.0191 N.am     1 ZINC000013512456   -0.6900
10     C10    -1.2230    1.7525    0.0120 C.ar     1 ZINC000013512456    0.2100
11     C11    -0.0206    1.0835   -0.1768 C.ar     1 ZINC000013512456   -0.1300
12     C12     1.1662    1.7896   -0.1891 C.ar     1 ZINC000013512456   -0.0500
13     C13     1.1588    3.1605   -0.0078 C.ar     1 ZINC000013512456   -0.2300
14     C14     2.4558    3.9277   -0.0218 C.3      1 ZINC000013512456    0.5100
15     F15     2.7416    4.3367   -1.3288 F        1 ZINC000013512456   -0.1800
16     F16     2.3419    5.0512    0.8041 F        1 ZINC000013512456   -0.1800
17     F17     3.4879    3.1075    0.4464 F        1 ZINC000013512456   -0.1800
18     C18    -0.0361    3.8288    0.1866 C.ar     1 ZINC000013512456   -0.0500
19     C19    -1.2265    3.1287    0.1995 C.ar     1 ZINC000013512456   -0.1700
20     H20    -5.0082   -3.6421   -0.1372 H        1 ZINC000013512456    0.0700
21     H21    -5.0606   -3.7804    1.6366 H        1 ZINC000013512456    0.0700
22     H22    -5.8673   -2.4164    0.8260 H        1 ZINC000013512456    0.0600
23     H23    -3.2352    1.4520   -0.3261 H        1 ZINC000013512456    0.4000
24     H24    -0.0142    0.0128   -0.3184 H        1 ZINC000013512456    0.1500
25     H25     2.1011    1.2705   -0.3407 H        1 ZINC000013512456    0.1300
26     H26    -0.0384    4.8995    0.3282 H        1 ZINC000013512456    0.1300
27     H27    -2.1594    3.6512    0.3511 H        1 ZINC000013512456    0.1300
@<TRIPOS>BOND
1     1     2     1
2     1     20    1
3     1     21    1
4     1     22    1
5     2     3     1
6     2     4     2
7     4     5     1
8     4     7     1
9     5     6     3
10    7     8     2
11    7     9     am
12    9     10    1
13    9     23    1
14    10    19    ar
15    10    11    ar
16    11    12    ar
17    11    24    1
18    12    13    ar
19    12    25    1
20    13    14    1
21    13    18    ar
22    14    15    1
23    14    16    1
24    14    17    1
25    18    19    ar
26    18    26    1
27    19    27    1
@<TRIPOS>SUBSTRUCTURE
1   ZINC000013512456 1     RESIDUE    1   A     ZIN   1
