@<TRIPOS>MOLECULE
ZINC000004534051
49    52    1     0     0
SMALL
USER_CHARGES
@<TRIPOS>ATOM
1      N1     -4.2173   -3.6127    6.3387 N.pl3    1 ZINC000004534051   -0.7600
2      C2     -3.9288   -2.5708    5.5598 C.cat    1 ZINC000004534051    0.6100
3      N3     -3.4298   -1.4571    6.0948 N.pl3    1 ZINC000004534051   -0.7600
4      H4     -3.2198   -0.6986    5.5278 H        1 ZINC000004534051    0.4500
5      H5     -3.2766   -1.4049    7.0512 H        1 ZINC000004534051    0.4300
6      C6     -4.1621   -2.6504    4.1030 C.ar     1 ZINC000004534051   -0.2000
7      C7     -4.0754   -3.8800    3.4464 C.ar     1 ZINC000004534051   -0.0200
8      C8     -4.2935   -3.9504    2.0883 C.ar     1 ZINC000004534051   -0.2000
9      C9     -4.5991   -2.7996    1.3712 C.ar     1 ZINC000004534051    0.1900
10     O10    -4.8133   -2.8727    0.0331 O.3      1 ZINC000004534051   -0.2400
11     C11    -4.7295   -4.0916   -0.5605 C.ar     1 ZINC000004534051    0.0800
12     C12    -3.5123   -4.5360   -1.0610 C.ar     1 ZINC000004534051   -0.1100
13     C13    -3.4232   -5.7721   -1.6640 C.ar     1 ZINC000004534051   -0.0700
14     C14    -4.5582   -6.5781   -1.7709 C.ar     1 ZINC000004534051   -0.0300
15     C15    -4.4668   -7.9047   -2.4165 C.2      1 ZINC000004534051    0.1600
16     C16    -3.3371   -8.4486   -2.9362 C.2      1 ZINC000004534051   -0.1800
17     C17    -3.6696   -9.7222   -3.4578 C.ar     1 ZINC000004534051   -0.0400
18     C18    -2.9253  -10.7207   -4.1014 C.ar     1 ZINC000004534051   -0.0600
19     C19    -3.5327  -11.8718   -4.5017 C.ar     1 ZINC000004534051   -0.1000
20     C20    -4.9018  -12.0681   -4.2750 C.ar     1 ZINC000004534051   -0.1400
21     C21    -5.5474  -13.3215   -4.7145 C.cat    1 ZINC000004534051    0.6000
22     N22    -4.8283  -14.2629   -5.3254 N.pl3    1 ZINC000004534051   -0.7600
23     N23    -6.8493  -13.5113   -4.5004 N.pl3    1 ZINC000004534051   -0.7700
24     H24    -7.3726  -12.8262   -4.0558 H        1 ZINC000004534051    0.4400
25     H25    -7.2733  -14.3345   -4.7891 H        1 ZINC000004534051    0.4300
26     C26    -5.6564  -11.0863   -3.6363 C.ar     1 ZINC000004534051   -0.0400
27     C27    -5.0473   -9.9114   -3.2251 C.ar     1 ZINC000004534051    0.0800
28     N28    -5.5118   -8.7836   -2.5792 N.pl3    1 ZINC000004534051   -0.5800
29     C29    -5.7797   -6.1281   -1.2662 C.ar     1 ZINC000004534051   -0.0900
30     C30    -5.8598   -4.8928   -0.6603 C.ar     1 ZINC000004534051   -0.1100
31     C31    -4.6862   -1.5741    2.0214 C.ar     1 ZINC000004534051   -0.1400
32     C32    -4.4755   -1.4971    3.3802 C.ar     1 ZINC000004534051   -0.0200
33     H33    -4.0641   -3.5605    7.2951 H        1 ZINC000004534051    0.4300
34     H34    -4.5843   -4.4220    5.9498 H        1 ZINC000004534051    0.4400
35     H35    -3.8374   -4.7745    4.0028 H        1 ZINC000004534051    0.1400
36     H36    -4.2267   -4.9009    1.5799 H        1 ZINC000004534051    0.1500
37     H37    -2.6348   -3.9120   -0.9779 H        1 ZINC000004534051    0.1500
38     H38    -2.4767   -6.1167   -2.0536 H        1 ZINC000004534051    0.1500
39     H39    -2.3587   -7.9914   -2.9495 H        1 ZINC000004534051    0.1600
40     H40    -1.8700  -10.5768   -4.2801 H        1 ZINC000004534051    0.1500
41     H41    -2.9558  -12.6384   -4.9975 H        1 ZINC000004534051    0.1400
42     H42    -3.8809  -14.1248   -5.4812 H        1 ZINC000004534051    0.4500
43     H43    -5.2524  -15.0861   -5.6141 H        1 ZINC000004534051    0.4300
44     H44    -6.7111  -11.2402   -3.4624 H        1 ZINC000004534051    0.1400
45     H45    -6.4254   -8.6347   -2.2893 H        1 ZINC000004534051    0.4300
46     H46    -6.6599   -6.7485   -1.3474 H        1 ZINC000004534051    0.1300
47     H47    -6.8042   -4.5441   -0.2692 H        1 ZINC000004534051    0.1400
48     H48    -4.9234   -0.6819    1.4610 H        1 ZINC000004534051    0.1600
49     H49    -4.5433   -0.5446    3.8848 H        1 ZINC000004534051    0.1500
@<TRIPOS>BOND
1     1     2     ar
2     1     33    1
3     1     34    1
4     2     3     ar
5     2     6     1
6     3     4     1
7     3     5     1
8     6     32    ar
9     6     7     ar
10    7     8     ar
11    7     35    1
12    8     9     ar
13    8     36    1
14    9     10    1
15    9     31    ar
16    10    11    1
17    11    30    ar
18    11    12    ar
19    12    13    ar
20    12    37    1
21    13    14    ar
22    13    38    1
23    14    15    1
24    14    29    ar
25    15    28    1
26    15    16    2
27    16    17    1
28    16    39    1
29    17    27    ar
30    17    18    ar
31    18    19    ar
32    18    40    1
33    19    20    ar
34    19    41    1
35    20    21    1
36    20    26    ar
37    21    22    ar
38    21    23    ar
39    22    42    1
40    22    43    1
41    23    24    1
42    23    25    1
43    26    27    ar
44    26    44    1
45    27    28    1
46    28    45    1
47    29    30    ar
48    29    46    1
49    30    47    1
50    31    32    ar
51    31    48    1
52    32    49    1
@<TRIPOS>SUBSTRUCTURE
1   ZINC000004534051 1     RESIDUE    1   A     ZIN   1
