@<TRIPOS>MOLECULE
ZINC000003794711
37    37    1     0     0
SMALL
USER_CHARGES
@<TRIPOS>ATOM
1      C1     -0.5686    1.3316    0.0185 C.3      1 ZINC000003794711   -0.1600
2      C2     -0.3453   -0.1819    0.0330 C.3      1 ZINC000003794711   -0.1200
3      C3      0.4083   -0.5985   -1.2317 C.3      1 ZINC000003794711   -0.1500
4      C4      0.6316   -2.1120   -1.2171 C.3      1 ZINC000003794711   -0.0100
5      N5      1.3551   -2.5120   -2.4314 N.4      1 ZINC000003794711   -0.3700
6      H6      2.2149   -1.9881   -2.4973 H        1 ZINC000003794711    0.4300
7      C7      0.5233   -2.2344   -3.6085 C.3      1 ZINC000003794711   -0.0100
8      C8      1.3034   -2.5736   -4.8805 C.3      1 ZINC000003794711    0.0600
9      H9      2.2081   -1.9673   -4.9252 H        1 ZINC000003794711    0.0900
10     O10     0.4910   -2.3038   -6.0247 O.3      1 ZINC000003794711   -0.5400
11     C11     1.6826   -4.0572   -4.8598 C.3      1 ZINC000003794711    0.0300
12     H12     0.7777   -4.6648   -4.8667 H        1 ZINC000003794711    0.0900
13     O13     2.4733   -4.3644   -6.0098 O.3      1 ZINC000003794711   -0.5500
14     C14     2.4868   -4.3507   -3.5901 C.3      1 ZINC000003794711    0.1100
15     H15     3.4161   -3.7813   -3.6080 H        1 ZINC000003794711    0.1000
16     O16     2.7840   -5.7470   -3.5256 O.3      1 ZINC000003794711   -0.5400
17     C17     1.6614   -3.9460   -2.3667 C.3      1 ZINC000003794711    0.0400
18     H18     0.7328   -4.5167   -2.3505 H        1 ZINC000003794711    0.1600
19     C19     2.4601   -4.2365   -1.0945 C.3      1 ZINC000003794711    0.0600
20     O20     3.7137   -3.5531   -1.1526 O.3      1 ZINC000003794711   -0.5800
21     H21     0.3947    1.8407   -0.0148 H        1 ZINC000003794711    0.0600
22     H22    -1.1540    1.6041   -0.8596 H        1 ZINC000003794711    0.0600
23     H23    -1.1054    1.6284    0.9195 H        1 ZINC000003794711    0.0700
24     H24     0.2402   -0.4544    0.9112 H        1 ZINC000003794711    0.0700
25     H25    -1.3085   -0.6910    0.0663 H        1 ZINC000003794711    0.0700
26     H26    -0.1772   -0.3260   -2.1098 H        1 ZINC000003794711    0.0900
27     H27     1.3715   -0.0894   -1.2650 H        1 ZINC000003794711    0.0900
28     H28     1.2171   -2.3845   -0.3390 H        1 ZINC000003794711    0.1400
29     H29    -0.3317   -2.6211   -1.1838 H        1 ZINC000003794711    0.1300
30     H30    -0.3812   -2.8411   -3.5649 H        1 ZINC000003794711    0.1400
31     H31     0.2516   -1.1789   -3.6201 H        1 ZINC000003794711    0.1500
32     H32     0.9231   -2.4964   -6.8681 H        1 ZINC000003794711    0.4000
33     H33     2.0263   -4.1965   -6.8507 H        1 ZINC000003794711    0.4000
34     H34     3.3028   -6.0737   -4.2734 H        1 ZINC000003794711    0.4100
35     H35     1.8983   -3.8920   -0.2262 H        1 ZINC000003794711    0.0800
36     H36     2.6345   -5.3093   -1.0120 H        1 ZINC000003794711    0.1000
37     H37     4.2739   -3.6923   -0.3768 H        1 ZINC000003794711    0.4100
@<TRIPOS>BOND
1     1     2     1
2     1     21    1
3     1     22    1
4     1     23    1
5     2     3     1
6     2     24    1
7     2     25    1
8     3     4     1
9     3     26    1
10    3     27    1
11    4     5     1
12    4     28    1
13    4     29    1
14    5     6     1
15    5     17    1
16    5     7     1
17    7     8     1
18    7     30    1
19    7     31    1
20    8     9     1
21    8     10    1
22    8     11    1
23    10    32    1
24    11    12    1
25    11    13    1
26    11    14    1
27    13    33    1
28    14    15    1
29    14    16    1
30    14    17    1
31    16    34    1
32    17    18    1
33    17    19    1
34    19    20    1
35    19    35    1
36    19    36    1
37    20    37    1
@<TRIPOS>SUBSTRUCTURE
1   ZINC000003794711 1     RESIDUE    1   A     ZIN   1

@<TRIPOS>MOLECULE
ZINC000003794711
37    37    1     0     0
SMALL
USER_CHARGES
@<TRIPOS>ATOM
1      C1     -0.2966    1.7871   -0.9486 C.3      1 ZINC000003794711   -0.1600
2      C2     -0.1838    0.2837   -0.6877 C.3      1 ZINC000003794711   -0.1200
3      C3      0.5873   -0.3762   -1.8326 C.3      1 ZINC000003794711   -0.1500
4      C4      0.7001   -1.8795   -1.5716 C.3      1 ZINC000003794711   -0.0300
5      N5      1.4404   -2.5131   -2.6709 N.4      1 ZINC000003794711   -0.3700
6      H6      0.9949   -2.2893   -3.5481 H        1 ZINC000003794711    0.4400
7      C7      2.8200   -2.0119   -2.6825 C.3      1 ZINC000003794711   -0.0100
8      C8      3.4750   -2.2785   -1.3256 C.3      1 ZINC000003794711    0.0600
9      H9      2.9116   -1.7701   -0.5432 H        1 ZINC000003794711    0.0900
10     O10     4.8182   -1.7908   -1.3400 O.3      1 ZINC000003794711   -0.5400
11     C11     3.4802   -3.7858   -1.0548 C.3      1 ZINC000003794711    0.0300
12     H12     4.0861   -4.2894   -1.8080 H        1 ZINC000003794711    0.1000
13     O13     4.0249   -4.0364    0.2423 O.3      1 ZINC000003794711   -0.5500
14     C14     2.0430   -4.3109   -1.1186 C.3      1 ZINC000003794711    0.1100
15     H15     1.4499   -3.8446   -0.3320 H        1 ZINC000003794711    0.0900
16     O16     2.0445   -5.7285   -0.9385 O.3      1 ZINC000003794711   -0.5400
17     C17     1.4426   -3.9688   -2.4823 C.3      1 ZINC000003794711    0.0400
18     H18     2.0367   -4.4357   -3.2679 H        1 ZINC000003794711    0.1600
19     C19     0.0060   -4.4907   -2.5517 C.3      1 ZINC000003794711    0.0600
20     O20    -0.5416   -4.2084   -3.8411 O.3      1 ZINC000003794711   -0.5800
21     H21     0.7014    2.2208   -1.0119 H        1 ZINC000003794711    0.0600
22     H22    -0.8256    1.9543   -1.8868 H        1 ZINC000003794711    0.0600
23     H23    -0.8460    2.2572   -0.1330 H        1 ZINC000003794711    0.0700
24     H24     0.3452    0.1165    0.2506 H        1 ZINC000003794711    0.0700
25     H25    -1.1819   -0.1499   -0.6244 H        1 ZINC000003794711    0.0700
26     H26     0.0583   -0.2089   -2.7708 H        1 ZINC000003794711    0.0900
27     H27     1.5853    0.0575   -1.8959 H        1 ZINC000003794711    0.0900
28     H28     1.2291   -2.0468   -0.6334 H        1 ZINC000003794711    0.1300
29     H29    -0.2980   -2.3132   -1.5083 H        1 ZINC000003794711    0.1400
30     H30     3.3843   -2.5205   -3.4641 H        1 ZINC000003794711    0.1400
31     H31     2.8148   -0.9396   -2.8785 H        1 ZINC000003794711    0.1500
32     H32     5.2949   -1.9267   -0.5098 H        1 ZINC000003794711    0.4000
33     H33     4.9331   -3.7238    0.3547 H        1 ZINC000003794711    0.4000
34     H34     2.4162   -6.0172   -0.0938 H        1 ZINC000003794711    0.4100
35     H35     0.0022   -5.5676   -2.3832 H        1 ZINC000003794711    0.1100
36     H36    -0.5959   -4.0011   -1.7862 H        1 ZINC000003794711    0.0700
37     H37    -1.4524   -4.5120   -3.9566 H        1 ZINC000003794711    0.4100
@<TRIPOS>BOND
1     1     2     1
2     1     21    1
3     1     22    1
4     1     23    1
5     2     3     1
6     2     24    1
7     2     25    1
8     3     4     1
9     3     26    1
10    3     27    1
11    4     5     1
12    4     28    1
13    4     29    1
14    5     6     1
15    5     17    1
16    5     7     1
17    7     8     1
18    7     30    1
19    7     31    1
20    8     9     1
21    8     10    1
22    8     11    1
23    10    32    1
24    11    12    1
25    11    13    1
26    11    14    1
27    13    33    1
28    14    15    1
29    14    16    1
30    14    17    1
31    16    34    1
32    17    18    1
33    17    19    1
34    19    20    1
35    19    35    1
36    19    36    1
37    20    37    1
@<TRIPOS>SUBSTRUCTURE
1   ZINC000003794711 1     RESIDUE    1   A     ZIN   1

@<TRIPOS>MOLECULE
ZINC000003794711
36    36    1     0     0
SMALL
USER_CHARGES
@<TRIPOS>ATOM
1      C1     -0.0187    1.5258    0.0104 C.3      1 ZINC000003794711   -0.1500
2      C2      0.0021   -0.0041    0.0020 C.3      1 ZINC000003794711   -0.1200
3      C3      0.7421   -0.5109    1.2415 C.3      1 ZINC000003794711   -0.1200
4      C4      0.7628   -2.0407    1.2331 C.3      1 ZINC000003794711    0.0600
5      N5      1.4733   -2.5274    2.4232 N.3      1 ZINC000003794711   -0.5200
6      C6      2.7238   -1.7856    2.6296 C.3      1 ZINC000003794711    0.0200
7      C7      3.3620   -2.2169    3.9520 C.3      1 ZINC000003794711    0.0800
8      H8      2.6816   -1.9944    4.7740 H        1 ZINC000003794711    0.0800
9      O9      4.5886   -1.5091    4.1430 O.3      1 ZINC000003794711   -0.5700
10     C10     3.6402   -3.7221    3.9119 C.3      1 ZINC000003794711    0.0800
11     H11     4.3507   -3.9400    3.1145 H        1 ZINC000003794711    0.0600
12     O12     4.1853   -4.1405    5.1648 O.3      1 ZINC000003794711   -0.5600
13     C13     2.3297   -4.4685    3.6476 C.3      1 ZINC000003794711    0.1300
14     H14     1.6331   -4.2814    4.4648 H        1 ZINC000003794711    0.0800
15     O15     2.5897   -5.8705    3.5539 O.3      1 ZINC000003794711   -0.5600
16     C16     1.7214   -3.9720    2.3340 C.3      1 ZINC000003794711    0.0900
17     H17     2.4126   -4.1719    1.5153 H        1 ZINC000003794711    0.0600
18     C18     0.4011   -4.7008    2.0760 C.3      1 ZINC000003794711    0.0900
19     O19    -0.4625   -4.5351    3.2025 O.3      1 ZINC000003794711   -0.5600
20     H20     1.0039    1.9031    0.0027 H        1 ZINC000003794711    0.0500
21     H21    -0.5459    1.8868   -0.8726 H        1 ZINC000003794711    0.0600
22     H22    -0.5289    1.8773    0.9072 H        1 ZINC000003794711    0.0600
23     H23    -1.0205   -0.3814    0.0098 H        1 ZINC000003794711    0.0600
24     H24     0.5123   -0.3556   -0.8948 H        1 ZINC000003794711    0.0600
25     H25     1.7647   -0.1336    1.2338 H        1 ZINC000003794711    0.0600
26     H26     0.2319   -0.1594    2.1383 H        1 ZINC000003794711    0.0700
27     H27    -0.2598   -2.4180    1.2409 H        1 ZINC000003794711    0.0800
28     H28     1.2730   -2.3923    0.3363 H        1 ZINC000003794711    0.0400
29     H29     3.4103   -1.9958    1.8094 H        1 ZINC000003794711    0.0400
30     H30     2.5113   -0.7170    2.6604 H        1 ZINC000003794711    0.0900
31     H31     4.4872   -0.5480    4.1755 H        1 ZINC000003794711    0.3900
32     H32     5.0157   -3.7034    5.3981 H        1 ZINC000003794711    0.3900
33     H33     2.9793   -6.2525    4.3523 H        1 ZINC000003794711    0.3900
34     H34    -0.0759   -4.2852    1.1884 H        1 ZINC000003794711    0.0500
35     H35     0.5961   -5.7618    1.9206 H        1 ZINC000003794711    0.0600
36     H36    -1.3200   -4.9720    3.1083 H        1 ZINC000003794711    0.3800
@<TRIPOS>BOND
1     1     2     1
2     1     20    1
3     1     21    1
4     1     22    1
5     2     3     1
6     2     23    1
7     2     24    1
8     3     4     1
9     3     25    1
10    3     26    1
11    4     5     1
12    4     27    1
13    4     28    1
14    5     16    1
15    5     6     1
16    6     7     1
17    6     29    1
18    6     30    1
19    7     8     1
20    7     9     1
21    7     10    1
22    9     31    1
23    10    11    1
24    10    12    1
25    10    13    1
26    12    32    1
27    13    14    1
28    13    15    1
29    13    16    1
30    15    33    1
31    16    17    1
32    16    18    1
33    18    19    1
34    18    34    1
35    18    35    1
36    19    36    1
@<TRIPOS>SUBSTRUCTURE
1   ZINC000003794711 1     RESIDUE    1   A     ZIN   1
