@<TRIPOS>MOLECULE
ZINC000000009073
38    41    1     0     0
SMALL
USER_CHARGES
@<TRIPOS>ATOM
1      C1     -0.0178    1.4648    0.0101 C.3      1 ZINC000000009073   -0.0500
2      N2      0.0021   -0.0041    0.0020 N.4      1 ZINC000000009073   -0.3800
3      H3      0.4744   -0.3289   -0.8283 H        1 ZINC000000009073    0.4300
4      C4     -1.3708   -0.5097    0.0105 C.3      1 ZINC000000009073    0.0000
5      C5     -1.3942   -2.0161   -0.1918 C.3      1 ZINC000000009073   -0.1100
6      C6     -0.2781   -2.7021    0.5441 C.ar     1 ZINC000000009073   -0.0900
7      C7     -0.2628   -4.0905    0.5701 C.ar     1 ZINC000000009073   -0.1000
8      C8      0.7240   -4.7739    1.2526 C.ar     1 ZINC000000009073   -0.0900
9      C9      1.7125   -4.0750    1.9153 C.ar     1 ZINC000000009073   -0.1000
10     C10     1.7170   -2.6849    1.8765 C.ar     1 ZINC000000009073   -0.0100
11     C11     0.7123   -1.9963    1.1929 C.ar     1 ZINC000000009073   -0.1300
12     C12     0.7149   -0.4903    1.1924 C.3      1 ZINC000000009073    0.0900
13     H13     0.2131   -0.1270    2.0892 H        1 ZINC000000009073    0.1500
14     C14     2.1428    0.0511    1.1553 C.3      1 ZINC000000009073   -0.0900
15     C15     2.9821   -0.5808    2.2316 C.ar     1 ZINC000000009073   -0.0800
16     C16     3.9546    0.1522    2.8798 C.ar     1 ZINC000000009073   -0.0900
17     C17     4.7391   -0.4392    3.8545 C.ar     1 ZINC000000009073   -0.1200
18     C18     4.5563   -1.7719    4.1872 C.ar     1 ZINC000000009073    0.1000
19     O19     5.3367   -2.3493    5.1396 O.3      1 ZINC000000009073   -0.4800
20     C20     3.5728   -2.5182    3.5457 C.ar     1 ZINC000000009073    0.1100
21     O21     3.3888   -3.8261    3.8674 O.3      1 ZINC000000009073   -0.4800
22     C22     2.7726   -1.9188    2.5801 C.ar     1 ZINC000000009073   -0.0700
23     H23     1.0047    1.8421    0.0024 H        1 ZINC000000009073    0.1300
24     H24    -0.5450    1.8259   -0.8730 H        1 ZINC000000009073    0.1300
25     H25    -0.5280    1.8163    0.9069 H        1 ZINC000000009073    0.1200
26     H26    -1.8355   -0.2691    0.9667 H        1 ZINC000000009073    0.1300
27     H27    -1.9338   -0.0316   -0.7911 H        1 ZINC000000009073    0.1400
28     H28    -2.3469   -2.4067    0.1659 H        1 ZINC000000009073    0.1200
29     H29    -1.3019   -2.2320   -1.2562 H        1 ZINC000000009073    0.1000
30     H30    -1.0322   -4.6423    0.0506 H        1 ZINC000000009073    0.1400
31     H31     0.7222   -5.8538    1.2680 H        1 ZINC000000009073    0.1400
32     H32     2.4785   -4.6051    2.4617 H        1 ZINC000000009073    0.1700
33     H33     2.5837   -0.1666    0.1825 H        1 ZINC000000009073    0.1000
34     H34     2.1210    1.1306    1.3049 H        1 ZINC000000009073    0.1100
35     H35     4.1044    1.1910    2.6254 H        1 ZINC000000009073    0.1400
36     H36     5.4980    0.1410    4.3583 H        1 ZINC000000009073    0.1500
37     H37     4.9791   -2.2814    6.0355 H        1 ZINC000000009073    0.4000
38     H38     2.7525   -3.9698    4.5812 H        1 ZINC000000009073    0.3900
@<TRIPOS>BOND
1     1     2     1
2     1     23    1
3     1     24    1
4     1     25    1
5     2     3     1
6     2     12    1
7     2     4     1
8     4     5     1
9     4     26    1
10    4     27    1
11    5     6     1
12    5     28    1
13    5     29    1
14    6     11    ar
15    6     7     ar
16    7     8     ar
17    7     30    1
18    8     9     ar
19    8     31    1
20    9     10    ar
21    9     32    1
22    10    22    1
23    10    11    ar
24    11    12    1
25    12    13    1
26    12    14    1
27    14    15    1
28    14    33    1
29    14    34    1
30    15    22    ar
31    15    16    ar
32    16    17    ar
33    16    35    1
34    17    18    ar
35    17    36    1
36    18    19    1
37    18    20    ar
38    19    37    1
39    20    21    1
40    20    22    ar
41    21    38    1
@<TRIPOS>SUBSTRUCTURE
1   ZINC000000009073 1     RESIDUE    1   A     ZIN   1

@<TRIPOS>MOLECULE
ZINC000000009073
38    41    1     0     0
SMALL
USER_CHARGES
@<TRIPOS>ATOM
1      C1     -0.0178    1.4648    0.0101 C.3      1 ZINC000000009073   -0.0600
2      N2      0.0021   -0.0041    0.0020 N.4      1 ZINC000000009073   -0.3800
3      H3     -0.9403   -0.3532    0.0921 H        1 ZINC000000009073    0.4300
4      C4      0.5780   -0.4763   -1.2573 C.3      1 ZINC000000009073    0.0000
5      C5      1.9224    0.1832   -1.5188 C.3      1 ZINC000000009073   -0.1000
6      C6      2.7358    0.3243   -0.2633 C.ar     1 ZINC000000009073   -0.0900
7      C7      4.0448    0.7747   -0.3745 C.ar     1 ZINC000000009073   -0.1000
8      C8      4.8466    0.9000    0.7426 C.ar     1 ZINC000000009073   -0.0900
9      C9      4.3465    0.5787    1.9881 C.ar     1 ZINC000000009073   -0.1000
10     C10     3.0304    0.1465    2.1111 C.ar     1 ZINC000000009073   -0.0100
11     C11     2.2244    0.0131    0.9782 C.ar     1 ZINC000000009073   -0.1200
12     C12     0.8131   -0.4886    1.1285 C.3      1 ZINC000000009073    0.0900
13     H13     0.8146   -1.5786    1.1311 H        1 ZINC000000009073    0.1500
14     C14     0.1900    0.0211    2.4267 C.3      1 ZINC000000009073   -0.1000
15     C15     1.0888   -0.2634    3.5986 C.ar     1 ZINC000000009073   -0.0800
16     C16     0.5527   -0.5912    4.8267 C.ar     1 ZINC000000009073   -0.0900
17     C17     1.3828   -0.8312    5.9078 C.ar     1 ZINC000000009073   -0.1200
18     C18     2.7585   -0.7433    5.7672 C.ar     1 ZINC000000009073    0.1000
19     O19     3.5682   -0.9715    6.8358 O.3      1 ZINC000000009073   -0.4800
20     C20     3.3102   -0.4217    4.5312 C.ar     1 ZINC000000009073    0.1100
21     O21     4.6590   -0.3336    4.3869 O.3      1 ZINC000000009073   -0.4800
22     C22     2.4763   -0.1998    3.4412 C.ar     1 ZINC000000009073   -0.0700
23     H23     1.0042    1.8418    0.0467 H        1 ZINC000000009073    0.1300
24     H24    -0.5064    1.8265   -0.8947 H        1 ZINC000000009073    0.1300
25     H25    -0.5662    1.8159    0.8842 H        1 ZINC000000009073    0.1300
26     H26     0.7125   -1.5568   -1.2071 H        1 ZINC000000009073    0.1300
27     H27    -0.1030   -0.2382   -2.0744 H        1 ZINC000000009073    0.1400
28     H28     2.4793   -0.4201   -2.2357 H        1 ZINC000000009073    0.1200
29     H29     1.7547    1.1722   -1.9452 H        1 ZINC000000009073    0.1000
30     H30     4.4402    1.0305   -1.3465 H        1 ZINC000000009073    0.1400
31     H31     5.8638    1.2486    0.6418 H        1 ZINC000000009073    0.1400
32     H32     4.9742    0.6621    2.8629 H        1 ZINC000000009073    0.1700
33     H33     0.0305    1.0966    2.3498 H        1 ZINC000000009073    0.1000
34     H34    -0.7692   -0.4728    2.5822 H        1 ZINC000000009073    0.1100
35     H35    -0.5186   -0.6603    4.9451 H        1 ZINC000000009073    0.1400
36     H36     0.9560   -1.0880    6.8661 H        1 ZINC000000009073    0.1500
37     H37     3.8359   -1.8953    6.9363 H        1 ZINC000000009073    0.4000
38     H38     5.0830   -1.1660    4.1371 H        1 ZINC000000009073    0.3900
@<TRIPOS>BOND
1     1     2     1
2     1     23    1
3     1     24    1
4     1     25    1
5     2     3     1
6     2     12    1
7     2     4     1
8     4     5     1
9     4     26    1
10    4     27    1
11    5     6     1
12    5     28    1
13    5     29    1
14    6     11    ar
15    6     7     ar
16    7     8     ar
17    7     30    1
18    8     9     ar
19    8     31    1
20    9     10    ar
21    9     32    1
22    10    22    1
23    10    11    ar
24    11    12    1
25    12    13    1
26    12    14    1
27    14    15    1
28    14    33    1
29    14    34    1
30    15    22    ar
31    15    16    ar
32    16    17    ar
33    16    35    1
34    17    18    ar
35    17    36    1
36    18    19    1
37    18    20    ar
38    19    37    1
39    20    21    1
40    20    22    ar
41    21    38    1
@<TRIPOS>SUBSTRUCTURE
1   ZINC000000009073 1     RESIDUE    1   A     ZIN   1

@<TRIPOS>MOLECULE
ZINC000000009073
37    40    1     0     0
SMALL
USER_CHARGES
@<TRIPOS>ATOM
1      C1     -0.0178    1.4648    0.0101 C.3      1 ZINC000000009073    0.0200
2      N2      0.0021   -0.0041    0.0020 N.3      1 ZINC000000009073   -0.5400
3      C3     -1.3550   -0.5467   -0.0796 C.3      1 ZINC000000009073    0.0600
4      C4     -1.3238   -2.0432   -0.3422 C.3      1 ZINC000000009073   -0.0800
5      C5     -0.2140   -2.7299    0.4020 C.ar     1 ZINC000000009073   -0.0700
6      C6     -0.1668   -4.1181    0.3715 C.ar     1 ZINC000000009073   -0.1200
7      C7      0.8149   -4.8081    1.0540 C.ar     1 ZINC000000009073   -0.1200
8      C8      1.7681   -4.1171    1.7741 C.ar     1 ZINC000000009073   -0.1100
9      C9      1.7410   -2.7269    1.7938 C.ar     1 ZINC000000009073   -0.0400
10     C10     0.7392   -2.0321    1.1114 C.ar     1 ZINC000000009073   -0.0600
11     C11     0.7068   -0.5279    1.1812 C.3      1 ZINC000000009073    0.1300
12     H12     0.1805   -0.2188    2.0843 H        1 ZINC000000009073    0.0600
13     C13     2.1222    0.0457    1.1975 C.3      1 ZINC000000009073   -0.0700
14     C14     2.9499   -0.6127    2.2673 C.ar     1 ZINC000000009073   -0.0700
15     C15     3.8899    0.1127    2.9693 C.ar     1 ZINC000000009073   -0.1100
16     C16     4.6628   -0.5023    3.9390 C.ar     1 ZINC000000009073   -0.1300
17     C17     4.5004   -1.8511    4.2123 C.ar     1 ZINC000000009073    0.0800
18     O18     5.2691   -2.4513    5.1603 O.3      1 ZINC000000009073   -0.4900
19     C19     3.5496   -2.5902    3.5158 C.ar     1 ZINC000000009073    0.1000
20     O20     3.3854   -3.9136    3.7795 O.3      1 ZINC000000009073   -0.4800
21     C21     2.7596   -1.9677    2.5569 C.ar     1 ZINC000000009073   -0.0500
22     H22     1.0047    1.8421    0.0024 H        1 ZINC000000009073    0.0700
23     H23    -0.5450    1.8259   -0.8730 H        1 ZINC000000009073    0.0700
24     H24    -0.5280    1.8163    0.9069 H        1 ZINC000000009073    0.0300
25     H25    -1.8736   -0.3583    0.8604 H        1 ZINC000000009073    0.0400
26     H26    -1.8910   -0.0516   -0.8894 H        1 ZINC000000009073    0.0800
27     H27    -2.2758   -2.4758   -0.0348 H        1 ZINC000000009073    0.0800
28     H28    -1.1897   -2.2117   -1.4107 H        1 ZINC000000009073    0.0800
29     H29    -0.9078   -4.6644   -0.1931 H        1 ZINC000000009073    0.1200
30     H30     0.8368   -5.8875    1.0247 H        1 ZINC000000009073    0.1300
31     H31     2.5308   -4.6531    2.3195 H        1 ZINC000000009073    0.1600
32     H32     2.5893   -0.1231    0.2272 H        1 ZINC000000009073    0.0900
33     H33     2.0731    1.1174    1.3900 H        1 ZINC000000009073    0.0800
34     H34     4.0235    1.1640    2.7613 H        1 ZINC000000009073    0.1300
35     H35     5.3960    0.0722    4.4856 H        1 ZINC000000009073    0.1400
36     H36     4.8878   -2.4277    6.0486 H        1 ZINC000000009073    0.3900
37     H37     2.7345   -4.0993    4.4701 H        1 ZINC000000009073    0.3900
@<TRIPOS>BOND
1     1     2     1
2     1     22    1
3     1     23    1
4     1     24    1
5     2     11    1
6     2     3     1
7     3     4     1
8     3     25    1
9     3     26    1
10    4     5     1
11    4     27    1
12    4     28    1
13    5     10    ar
14    5     6     ar
15    6     7     ar
16    6     29    1
17    7     8     ar
18    7     30    1
19    8     9     ar
20    8     31    1
21    9     21    1
22    9     10    ar
23    10    11    1
24    11    12    1
25    11    13    1
26    13    14    1
27    13    32    1
28    13    33    1
29    14    21    ar
30    14    15    ar
31    15    16    ar
32    15    34    1
33    16    17    ar
34    16    35    1
35    17    18    1
36    17    19    ar
37    18    36    1
38    19    20    1
39    19    21    ar
40    20    37    1
@<TRIPOS>SUBSTRUCTURE
1   ZINC000000009073 1     RESIDUE    1   A     ZIN   1
