@<TRIPOS>MOLECULE
ZINC000000089763
27    28    1     0     0
SMALL
USER_CHARGES
@<TRIPOS>ATOM
1      C1     -0.0184    1.5028    0.0103 C.3      1 ZINC000000089763   -0.0600
2      C2      0.0021   -0.0041    0.0020 C.2      1 ZINC000000089763   -0.0600
3      C3     -1.0712   -0.8265    0.0024 C.2      1 ZINC000000089763   -0.2500
4      C4     -0.5044   -2.1295   -0.0072 C.2      1 ZINC000000089763    0.3300
5      N5     -1.1913   -3.3390   -0.0111 N.pl3    1 ZINC000000089763   -1.0600
6      S6     -0.3531   -4.7672   -0.0226 S.o2     1 ZINC000000089763    2.6200
7      O7      0.3143   -4.8307   -1.2755 O.2      1 ZINC000000089763   -1.0300
8      O8      0.3248   -4.8446    1.2239 O.2      1 ZINC000000089763   -1.0300
9      C9     -1.5405   -6.0689   -0.0249 C.ar     1 ZINC000000089763   -0.6700
10     C10    -2.0047   -6.5814    1.1727 C.ar     1 ZINC000000089763    0.0200
11     C11    -2.9354   -7.6017    1.1746 C.ar     1 ZINC000000089763   -0.2200
12     C12    -3.4053   -8.1131   -0.0284 C.ar     1 ZINC000000089763    0.2400
13     N13    -4.3470   -9.1447   -0.0302 N.pl3    1 ZINC000000089763   -0.8800
14     C14    -2.9370   -7.5960   -1.2296 C.ar     1 ZINC000000089763   -0.2200
15     C15    -2.0105   -6.5719   -1.2242 C.ar     1 ZINC000000089763    0.0200
16     N16     0.7927   -1.9630   -0.0122 N.2      1 ZINC000000089763   -0.5000
17     O17     1.0882   -0.7905   -0.0130 O.3      1 ZINC000000089763    0.0600
18     H18     1.0042    1.8801    0.0026 H        1 ZINC000000089763    0.0700
19     H19    -0.5455    1.8639   -0.8728 H        1 ZINC000000089763    0.0800
20     H20    -0.5286    1.8543    0.9071 H        1 ZINC000000089763    0.0800
21     H21    -2.1167   -0.5558    0.0089 H        1 ZINC000000089763    0.1500
22     H22    -1.6386   -6.1836    2.1077 H        1 ZINC000000089763    0.1400
23     H23    -3.2972   -8.0018    2.1102 H        1 ZINC000000089763    0.1200
24     H24    -4.6735   -9.5048    0.8092 H        1 ZINC000000089763    0.4000
25     H25    -4.6744   -9.5011   -0.8709 H        1 ZINC000000089763    0.4000
26     H26    -3.3001   -7.9917   -2.1667 H        1 ZINC000000089763    0.1200
27     H27    -1.6460   -6.1694   -2.1578 H        1 ZINC000000089763    0.1400
@<TRIPOS>BOND
1     1     2     1
2     1     18    1
3     1     19    1
4     1     20    1
5     2     17    1
6     2     3     2
7     3     4     1
8     3     21    1
9     4     5     1
10    4     16    2
11    5     6     1
12    6     7     2
13    6     8     2
14    6     9     1
15    9     15    ar
16    9     10    ar
17    10    11    ar
18    10    22    1
19    11    12    ar
20    11    23    1
21    12    13    1
22    12    14    ar
23    13    24    1
24    13    25    1
25    14    15    ar
26    14    26    1
27    15    27    1
28    16    17    1
@<TRIPOS>SUBSTRUCTURE
1   ZINC000000089763 1     RESIDUE    1   A     ZIN   1

@<TRIPOS>MOLECULE
ZINC000000089763
28    29    1     0     0
SMALL
USER_CHARGES
@<TRIPOS>ATOM
1      C1     -0.0184    1.5028    0.0103 C.3      1 ZINC000000089763   -0.0800
2      C2      0.0021   -0.0041    0.0020 C.2      1 ZINC000000089763    0.0000
3      C3     -1.0712   -0.8265    0.0024 C.2      1 ZINC000000089763   -0.2500
4      C4     -0.5044   -2.1295   -0.0072 C.2      1 ZINC000000089763    0.2700
5      N5     -1.1913   -3.3390   -0.0111 N.am     1 ZINC000000089763   -1.0100
6      S6     -0.3531   -4.7672   -0.0226 S.o2     1 ZINC000000089763    2.6900
7      O7     -1.3251   -5.8032    0.0105 O.2      1 ZINC000000089763   -0.9500
8      O8      0.6241   -4.6507   -1.0476 O.2      1 ZINC000000089763   -0.9300
9      C9      0.5308   -4.8655    1.4986 C.ar     1 ZINC000000089763   -0.7300
10     C10     1.8093   -4.3462    1.5883 C.ar     1 ZINC000000089763    0.0500
11     C11     2.5048   -4.4216    2.7790 C.ar     1 ZINC000000089763   -0.2200
12     C12     1.9187   -5.0198    3.8873 C.ar     1 ZINC000000089763    0.2700
13     N13     2.6191   -5.0972    5.0932 N.pl3    1 ZINC000000089763   -0.8700
14     C14     0.6342   -5.5403    3.7937 C.ar     1 ZINC000000089763   -0.2200
15     C15    -0.0579   -5.4566    2.6015 C.ar     1 ZINC000000089763    0.0300
16     N16     0.7927   -1.9630   -0.0122 N.2      1 ZINC000000089763   -0.3900
17     O17     1.0882   -0.7905   -0.0130 O.3      1 ZINC000000089763    0.1000
18     H18     1.0042    1.8801    0.0026 H        1 ZINC000000089763    0.0900
19     H19    -0.5455    1.8639   -0.8728 H        1 ZINC000000089763    0.0900
20     H20    -0.5286    1.8543    0.9071 H        1 ZINC000000089763    0.0900
21     H21    -2.1167   -0.5558    0.0089 H        1 ZINC000000089763    0.1800
22     H22    -2.1613   -3.3460   -0.0071 H        1 ZINC000000089763    0.4400
23     H23     2.2645   -3.8816    0.7262 H        1 ZINC000000089763    0.1500
24     H24     3.5035   -4.0162    2.8484 H        1 ZINC000000089763    0.1300
25     H25     3.5159   -4.7331    5.1575 H        1 ZINC000000089763    0.4000
26     H26     2.2088   -5.5152    5.8665 H        1 ZINC000000089763    0.4000
27     H27     0.1758   -6.0064    4.6533 H        1 ZINC000000089763    0.1300
28     H28    -1.0565   -5.8611    2.5280 H        1 ZINC000000089763    0.1400
@<TRIPOS>BOND
1     1     2     1
2     1     18    1
3     1     19    1
4     1     20    1
5     2     17    1
6     2     3     2
7     3     4     1
8     3     21    1
9     4     5     1
10    4     16    2
11    5     6     am
12    5     22    1
13    6     7     2
14    6     8     2
15    6     9     1
16    9     15    ar
17    9     10    ar
18    10    11    ar
19    10    23    1
20    11    12    ar
21    11    24    1
22    12    13    1
23    12    14    ar
24    13    25    1
25    13    26    1
26    14    15    ar
27    14    27    1
28    15    28    1
29    16    17    1
@<TRIPOS>SUBSTRUCTURE
1   ZINC000000089763 1     RESIDUE    1   A     ZIN   1
