@<TRIPOS>MOLECULE
ZINC000000001688
  17   17    0    0    0
SMALL
USER_CHARGES
NO_NAME
@<TRIPOS>ATOM
    1 N1       -0.0169     1.3954     0.0097 N.pl3  1 <0>      -0.8900
    2 C2        0.0021    -0.0041     0.0020 C.ar   1 <0>       0.1800
    3 C3       -1.1943    -0.7142     0.0039 C.ar   1 <0>      -0.1900
    4 C4       -1.1862    -2.0945    -0.0037 C.ar   1 <0>      -0.1200
    5 C5        0.0163    -2.7845    -0.0132 C.ar   1 <0>       0.0800
    6 O6        0.0220    -4.1414    -0.0210 O.3    1 <0>      -0.4800
    7 C7        1.2272    -2.0761    -0.0151 C.ar   1 <0>      -0.1200
    8 C8        2.5081    -2.8008    -0.0252 C.2    1 <0>       0.5200
    9 O9        3.5622    -2.1798    -0.0269 O.co2  1 <0>      -0.6900
   10 O10       2.5189    -4.0241    -0.0319 O.co2  1 <0>      -0.6700
   11 C11       1.2106    -0.6778    -0.0131 C.ar   1 <0>      -0.1400
   12 H12       0.8164     1.8918     0.0044 H      1 <0>       0.3900
   13 H13      -0.8634     1.8690     0.0163 H      1 <0>       0.3900
   14 H14      -2.1344    -0.1827     0.0116 H      1 <0>       0.1100
   15 H15      -2.1192    -2.6385    -0.0018 H      1 <0>       0.1200
   16 H16       0.0196    -4.5297    -0.9067 H      1 <0>       0.3800
   17 H17       2.1386    -0.1252    -0.0150 H      1 <0>       0.1300
@<TRIPOS>BOND
   1    1    2 1
   2    1   12 1
   3    1   13 1
   4    2   11 ar
   5    2    3 ar
   6    3    4 ar
   7    3   14 1
   8    4    5 ar
   9    4   15 1
  10    5    6 1
  11    5    7 ar
  12    6   16 1
  13    7    8 1
  14    7   11 ar
  15    8    9 ar
  16    8   10 ar
  17   11   17 1

@<TRIPOS>MOLECULE
ZINC000000001688
  18   18    0    0    0
SMALL
USER_CHARGES
NO_NAME
@<TRIPOS>ATOM
    1 N1       -0.0116     1.0048     0.0076 N.4    1 <0>      -0.5500
    2 H2        0.0021    -0.0041     0.0020 H      1 <0>       0.4300
    3 H3        0.9350     1.3541     0.0004 H      1 <0>       0.4400
    4 H4       -0.4996     1.3391    -0.8099 H      1 <0>       0.4300
    5 C5       -0.6660     1.4557     1.1578 C.ar   1 <0>      -0.1000
    6 C6       -2.0360     1.6617     1.1355 C.ar   1 <0>      -0.0800
    7 C7       -2.6946     2.1067     2.2645 C.ar   1 <0>      -0.1500
    8 C8       -1.9866     2.3516     3.4316 C.ar   1 <0>       0.2000
    9 O9       -2.6321     2.7888     4.5411 O.3    1 <0>      -0.4700
   10 C10      -0.5989     2.1444     3.4588 C.ar   1 <0>      -0.1400
   11 C11       0.1640     2.4006     4.6909 C.2    1 <0>       0.5100
   12 O12       1.3737     2.2187     4.7104 O.co2  1 <0>      -0.6800
   13 O13      -0.4114     2.7955     5.6957 O.co2  1 <0>      -0.6500
   14 C14       0.0536     1.6876     2.3093 C.ar   1 <0>      -0.0400
   15 H15      -2.5922     1.4732     0.2292 H      1 <0>       0.1400
   16 H16      -3.7627     2.2647     2.2386 H      1 <0>       0.1500
   17 H17      -2.9489     2.0794     5.1170 H      1 <0>       0.4100
   18 H18       1.1213     1.5255     2.3217 H      1 <0>       0.1500
@<TRIPOS>BOND
   1    1    2 1
   2    1    3 1
   3    1    4 1
   4    1    5 1
   5    5   14 ar
   6    5    6 ar
   7    6    7 ar
   8    6   15 1
   9    7    8 ar
  10    7   16 1
  11    8    9 1
  12    8   10 ar
  13    9   17 1
  14   10   11 1
  15   10   14 ar
  16   11   12 ar
  17   11   13 ar
  18   14   18 1
