@<TRIPOS>MOLECULE
ZINC000001530938
38    38    1     0     0
SMALL
USER_CHARGES
@<TRIPOS>ATOM
1      C1      0.0803    1.4519   -0.2179 C.3      1 ZINC000001530938   -0.1900
2      C2      0.0233   -0.0652   -0.0284 C.3      1 ZINC000001530938   -0.0200
3      N3     -1.3740   -0.4853    0.1417 N.4      1 ZINC000001530938   -0.3900
4      H4     -1.7931    0.0380    0.8958 H        1 ZINC000001530938    0.4300
5      C5     -2.1159   -0.2330   -1.1009 C.3      1 ZINC000001530938   -0.0100
6      C6     -3.5996   -0.5332   -0.8788 C.3      1 ZINC000001530938   -0.1900
7      C7     -1.4193   -1.9194    0.4565 C.3      1 ZINC000001530938   -0.0100
8      C8     -0.7548   -2.1652    1.8126 C.3      1 ZINC000001530938    0.0300
9      O9     -1.5303   -1.5182    2.8559 O.3      1 ZINC000001530938   -0.3700
10     C10    -1.0772   -1.6393    4.1193 C.2      1 ZINC000001530938    0.5200
11     O11    -0.0617   -2.2684    4.3430 O.2      1 ZINC000001530938   -0.4800
12     C12    -1.8127   -1.0091    5.2291 C.ar     1 ZINC000001530938   -0.2000
13     C13    -2.9846   -0.2897    4.9744 C.ar     1 ZINC000001530938    0.0000
14     C14    -3.6662    0.2944    6.0038 C.ar     1 ZINC000001530938   -0.2100
15     C15    -3.1990    0.1770    7.3102 C.ar     1 ZINC000001530938    0.2800
16     N16    -3.8979    0.7746    8.3528 N.pl3    1 ZINC000001530938   -0.8500
17     C17    -2.0341   -0.5376    7.5751 C.ar     1 ZINC000001530938   -0.2100
18     C18    -1.3435   -1.1338    6.5426 C.ar     1 ZINC000001530938    0.0800
19     Cl19    0.1094   -2.0266    6.8676 Cl       1 ZINC000001530938   -0.0200
20     H20     1.1205    1.7775   -0.2325 H        1 ZINC000001530938    0.1100
21     H21    -0.3970    1.7185   -1.1609 H        1 ZINC000001530938    0.0800
22     H22    -0.4419    1.9407    0.6045 H        1 ZINC000001530938    0.0800
23     H23     0.4465   -0.5569   -0.9044 H        1 ZINC000001530938    0.1300
24     H24     0.5964   -0.3426    0.8563 H        1 ZINC000001530938    0.1300
25     H25    -1.9958    0.8110   -1.3902 H        1 ZINC000001530938    0.1300
26     H26    -1.7295   -0.8760   -1.8917 H        1 ZINC000001530938    0.1300
27     H27    -3.7314   -1.6000   -0.6980 H        1 ZINC000001530938    0.0800
28     H28    -3.9590    0.0285   -0.0166 H        1 ZINC000001530938    0.0800
29     H29    -4.1656   -0.2421   -1.7637 H        1 ZINC000001530938    0.1100
30     H30    -2.4571   -2.2503    0.4952 H        1 ZINC000001530938    0.1400
31     H31    -0.8885   -2.4777   -0.3147 H        1 ZINC000001530938    0.1500
32     H32    -0.7088   -3.2369    2.0058 H        1 ZINC000001530938    0.1200
33     H33     0.2547   -1.7541    1.8023 H        1 ZINC000001530938    0.1000
34     H34    -3.3507   -0.1956    3.9628 H        1 ZINC000001530938    0.1400
35     H35    -4.5707    0.8496    5.8037 H        1 ZINC000001530938    0.1400
36     H36    -4.7099    1.2725    8.1696 H        1 ZINC000001530938    0.4100
37     H37    -3.5735    0.6936    9.2633 H        1 ZINC000001530938    0.4100
38     H38    -1.6739   -0.6276    8.5893 H        1 ZINC000001530938    0.1500
@<TRIPOS>BOND
1     1     2     1
2     1     20    1
3     1     21    1
4     1     22    1
5     2     3     1
6     2     23    1
7     2     24    1
8     3     4     1
9     3     5     1
10    3     7     1
11    5     6     1
12    5     25    1
13    5     26    1
14    6     27    1
15    6     28    1
16    6     29    1
17    7     8     1
18    7     30    1
19    7     31    1
20    8     9     1
21    8     32    1
22    8     33    1
23    9     10    1
24    10    11    2
25    10    12    1
26    12    18    ar
27    12    13    ar
28    13    14    ar
29    13    34    1
30    14    15    ar
31    14    35    1
32    15    16    1
33    15    17    ar
34    16    36    1
35    16    37    1
36    17    18    ar
37    17    38    1
38    18    19    1
@<TRIPOS>SUBSTRUCTURE
1   ZINC000001530938 1     RESIDUE    1   A     ZIN   1

@<TRIPOS>MOLECULE
ZINC000001530938
37    37    1     0     0
SMALL
USER_CHARGES
@<TRIPOS>ATOM
1      C1      1.8738    1.7479    1.3157 C.3      1 ZINC000001530938   -0.1500
2      C2      2.0237    0.2896    0.8777 C.3      1 ZINC000001530938    0.0500
3      N3      0.7740   -0.4338    1.1478 N.3      1 ZINC000001530938   -0.5300
4      C4     -0.3195    0.0727    0.3078 C.3      1 ZINC000001530938    0.0500
5      C5     -1.6597   -0.3968    0.8774 C.3      1 ZINC000001530938   -0.1500
6      C6      0.9526   -1.8802    0.9637 C.3      1 ZINC000001530938    0.0500
7      C7      1.7119   -2.4567    2.1604 C.3      1 ZINC000001530938    0.0800
8      O8      0.9068   -2.3113    3.3600 O.3      1 ZINC000001530938   -0.3400
9      C9      1.4732   -2.6816    4.5255 C.2      1 ZINC000001530938    0.5100
10     O10     2.6088   -3.1140    4.5389 O.2      1 ZINC000001530938   -0.5000
11     C11     0.7157   -2.5620    5.7832 C.ar     1 ZINC000001530938   -0.1900
12     C12    -0.5933   -2.0700    5.7691 C.ar     1 ZINC000001530938    0.0000
13     C13    -1.2952   -1.9594    6.9355 C.ar     1 ZINC000001530938   -0.2100
14     C14    -0.7125   -2.3352    8.1430 C.ar     1 ZINC000001530938    0.2700
15     N15    -1.4329   -2.2193    9.3262 N.pl3    1 ZINC000001530938   -0.8600
16     C16     0.5896   -2.8270    8.1683 C.ar     1 ZINC000001530938   -0.2100
17     C17     1.3024   -2.9462    6.9953 C.ar     1 ZINC000001530938    0.0700
18     Cl18    2.9263   -3.5595    7.0213 Cl       1 ZINC000001530938   -0.0300
19     H19     1.6552    1.7861    2.3828 H        1 ZINC000001530938    0.0600
20     H20     2.8011    2.2846    1.1153 H        1 ZINC000001530938    0.0600
21     H21     1.0582    2.2118    0.7609 H        1 ZINC000001530938    0.0600
22     H22     2.2423    0.2514   -0.1895 H        1 ZINC000001530938    0.0300
23     H23     2.8392   -0.1744    1.4324 H        1 ZINC000001530938    0.0700
24     H24    -0.2924    1.1623    0.2940 H        1 ZINC000001530938    0.0800
25     H25    -0.2034   -0.3065   -0.7075 H        1 ZINC000001530938    0.0300
26     H26    -2.4698   -0.0406    0.2411 H        1 ZINC000001530938    0.0600
27     H27    -1.6777   -1.4861    0.9129 H        1 ZINC000001530938    0.0500
28     H28    -1.7863    0.0016    1.8840 H        1 ZINC000001530938    0.0600
29     H29    -0.0231   -2.3600    0.8871 H        1 ZINC000001530938    0.0900
30     H30     1.5200   -2.0630    0.0511 H        1 ZINC000001530938    0.0600
31     H31     1.9168   -3.5130    1.9861 H        1 ZINC000001530938    0.0700
32     H32     2.6523   -1.9202    2.2867 H        1 ZINC000001530938    0.0700
33     H33    -1.0495   -1.7769    4.8351 H        1 ZINC000001530938    0.1500
34     H34    -2.3058   -1.5787    6.9213 H        1 ZINC000001530938    0.1300
35     H35    -2.3404   -1.8771    9.3099 H        1 ZINC000001530938    0.4100
36     H36    -1.0281   -2.4807   10.1681 H        1 ZINC000001530938    0.4000
37     H37     1.0393   -3.1181    9.1061 H        1 ZINC000001530938    0.1400
@<TRIPOS>BOND
1     1     2     1
2     1     19    1
3     1     20    1
4     1     21    1
5     2     3     1
6     2     22    1
7     2     23    1
8     3     4     1
9     3     6     1
10    4     5     1
11    4     24    1
12    4     25    1
13    5     26    1
14    5     27    1
15    5     28    1
16    6     7     1
17    6     29    1
18    6     30    1
19    7     8     1
20    7     31    1
21    7     32    1
22    8     9     1
23    9     10    2
24    9     11    1
25    11    17    ar
26    11    12    ar
27    12    13    ar
28    12    33    1
29    13    14    ar
30    13    34    1
31    14    15    1
32    14    16    ar
33    15    35    1
34    15    36    1
35    16    17    ar
36    16    37    1
37    17    18    1
@<TRIPOS>SUBSTRUCTURE
1   ZINC000001530938 1     RESIDUE    1   A     ZIN   1
