@<TRIPOS>MOLECULE
ZINC000052971887
  24   23    0    0    0
SMALL
USER_CHARGES
NO_NAME
@<TRIPOS>ATOM
    1 N1        0.9104    -0.0545     1.1351 N.3    1 <0>      -0.8200
    2 C2        0.1481     0.3347    -0.0588 C.3    1 <0>      -0.0100
    3 C3       -1.2546    -0.2724     0.0114 C.3    1 <0>      -0.0900
    4 C4       -1.9327     0.1595     1.3132 C.3    1 <0>      -0.1500
    5 C5       -3.3789    -0.3397     1.3250 C.3    1 <0>      -0.0100
    6 N6       -4.0299     0.0750     2.5749 N.4    1 <0>      -0.6400
    7 H7       -4.9836    -0.2543     2.5826 H      1 <0>       0.4300
    8 H8       -3.5321    -0.3178     3.3597 H      1 <0>       0.4300
    9 H9       -4.0211     1.0818     2.6407 H      1 <0>       0.4400
   10 C10       0.0429     1.8367    -0.1201 C.2    1 <0>       0.4700
   11 O11       0.5554     2.5197     0.7501 O.co2  1 <0>      -0.6800
   12 O12      -0.5548     2.3690    -1.0399 O.co2  1 <0>      -0.6700
   13 C13       0.8635    -0.1780    -1.3103 C.3    1 <0>       0.2900
   14 F14       1.0296    -1.5640    -1.2177 F      1 <0>      -0.2100
   15 F15       0.0990     0.1256    -2.4419 F      1 <0>      -0.1900
   16 H16       1.8608     0.2802     1.0823 H      1 <0>       0.3500
   17 H17       0.4580     0.2727     1.9755 H      1 <0>       0.3400
   18 H18      -1.8436     0.0747    -0.8375 H      1 <0>       0.0800
   19 H19      -1.1818    -1.3596    -0.0170 H      1 <0>       0.0700
   20 H20      -1.3949    -0.2647     2.1611 H      1 <0>       0.0900
   21 H21      -1.9232     1.2472     1.3843 H      1 <0>       0.0900
   22 H22      -3.9166     0.0845     0.4771 H      1 <0>       0.1300
   23 H23      -3.3884    -1.4274     1.2539 H      1 <0>       0.1300
   24 H24       1.8396     0.3002    -1.3923 H      1 <0>       0.1000
@<TRIPOS>BOND
   1    1    2 1
   2    1   16 1
   3    1   17 1
   4    2    3 1
   5    2   10 1
   6    2   13 1
   7    3    4 1
   8    3   18 1
   9    3   19 1
  10    4    5 1
  11    4   20 1
  12    4   21 1
  13    5    6 1
  14    5   22 1
  15    5   23 1
  16    6    7 1
  17    6    8 1
  18    6    9 1
  19   10   11 ar
  20   10   12 ar
  21   13   14 1
  22   13   15 1
  23   13   24 1

@<TRIPOS>MOLECULE
ZINC000052971887
  25   24    0    0    0
SMALL
USER_CHARGES
NO_NAME
@<TRIPOS>ATOM
    1 N1       -0.0116     1.0048     0.0076 N.4    1 <0>      -0.6400
    2 H2        0.0021    -0.0041     0.0020 H      1 <0>       0.4400
    3 H3        0.9350     1.3541     0.0004 H      1 <0>       0.4500
    4 H4       -0.4996     1.3391    -0.8099 H      1 <0>       0.4300
    5 C5       -0.6992     1.4786     1.2162 C.3    1 <0>       0.0000
    6 C6       -2.1346     0.9490     1.2270 C.3    1 <0>      -0.1800
    7 C7       -2.8507     1.4424     2.4858 C.3    1 <0>      -0.1200
    8 C8       -4.2861     0.9128     2.4967 C.3    1 <0>      -0.0800
    9 N9       -4.9600     1.2992     1.2499 N.4    1 <0>      -0.6100
   10 H10      -4.4631     0.9079     0.4638 H      1 <0>       0.4100
   11 H11      -5.9066     0.9500     1.2571 H      1 <0>       0.4500
   12 H12      -4.9733     2.3052     1.1725 H      1 <0>       0.4400
   13 C13      -5.0283     1.4973     3.6709 C.2    1 <0>       0.4900
   14 O14      -6.0262     2.1730     3.4862 O.co2  1 <0>      -0.6500
   15 O15      -4.6309     1.2943     4.8055 O.co2  1 <0>      -0.6000
   16 C16      -4.2661    -0.6125     2.6140 C.3    1 <0>       0.2800
   17 F17      -3.6242    -0.9805     3.8014 F      1 <0>      -0.1600
   18 F18      -5.5785    -1.0968     2.6240 F      1 <0>      -0.1800
   19 H19      -0.1720     1.1175     2.0992 H      1 <0>       0.1500
   20 H20      -0.7140     2.5685     1.2222 H      1 <0>       0.1400
   21 H21      -2.6618     1.3101     0.3440 H      1 <0>       0.0800
   22 H22      -2.1198    -0.1409     1.2210 H      1 <0>       0.1000
   23 H23      -2.3235     1.0813     3.3689 H      1 <0>       0.1300
   24 H24      -2.8655     2.5323     2.4918 H      1 <0>       0.1100
   25 H25      -3.7292    -1.0352     1.7648 H      1 <0>       0.1100
@<TRIPOS>BOND
   1    1    2 1
   2    1    3 1
   3    1    4 1
   4    1    5 1
   5    5    6 1
   6    5   19 1
   7    5   20 1
   8    6    7 1
   9    6   21 1
  10    6   22 1
  11    7    8 1
  12    7   23 1
  13    7   24 1
  14    8    9 1
  15    8   13 1
  16    8   16 1
  17    9   10 1
  18    9   11 1
  19    9   12 1
  20   13   14 ar
  21   13   15 ar
  22   16   17 1
  23   16   18 1
  24   16   25 1
