@<TRIPOS>MOLECULE
ZINC000000001798
27    28    1     0     0
SMALL
USER_CHARGES
@<TRIPOS>ATOM
1      C1     -0.7278    1.2984    0.7114 C.3      1 ZINC000000001798   -0.0500
2      N2     -0.4162   -0.1081    0.4238 N.4      1 ZINC000000001798   -0.3900
3      H3     -0.2971   -0.2339   -0.5702 H        1 ZINC000000001798    0.4300
4      C4     -1.5163   -0.9701    0.9062 C.3      1 ZINC000000001798   -0.0100
5      C5     -0.8166   -2.2506    1.4260 C.3      1 ZINC000000001798   -0.1400
6      C6      0.4727   -1.6671    2.0617 C.3      1 ZINC000000001798   -0.1400
7      C7      0.8217   -0.4954    1.1248 C.3      1 ZINC000000001798    0.0800
8      H8      1.5717   -0.8112    0.3996 H        1 ZINC000000001798    0.1500
9      C9      1.3445    0.6665    1.9298 C.ar     1 ZINC000000001798   -0.2000
10     C10     0.6483    1.1219    3.0387 C.ar     1 ZINC000000001798   -0.0600
11     C11     1.1674    2.1935    3.7495 C.ar     1 ZINC000000001798   -0.1600
12     C12     2.3528    2.7677    3.3319 C.ar     1 ZINC000000001798    0.1400
13     N13     2.9884    2.3080    2.2716 N.ar     1 ZINC000000001798   -0.4700
14     C14     2.5272    1.2878    1.5751 C.ar     1 ZINC000000001798    0.1300
15     H15     0.1478    1.9140    0.5056 H        1 ZINC000000001798    0.1200
16     H16    -1.5563    1.6230    0.0818 H        1 ZINC000000001798    0.1200
17     H17    -1.0063    1.4017    1.7601 H        1 ZINC000000001798    0.1200
18     H18    -2.0571   -0.4783    1.7147 H        1 ZINC000000001798    0.1300
19     H19    -2.1942   -1.2136    0.0881 H        1 ZINC000000001798    0.1400
20     H20    -1.4284   -2.7531    2.1752 H        1 ZINC000000001798    0.1200
21     H21    -0.5760   -2.9251    0.6043 H        1 ZINC000000001798    0.1000
22     H22     0.2755   -1.3063    3.0712 H        1 ZINC000000001798    0.1000
23     H23     1.2706   -2.4097    2.0658 H        1 ZINC000000001798    0.1200
24     H24    -0.2765    0.6535    3.3415 H        1 ZINC000000001798    0.1400
25     H25     0.6514    2.5747    4.6183 H        1 ZINC000000001798    0.1500
26     H26     2.7635    3.6029    3.8798 H        1 ZINC000000001798    0.1700
27     H27     3.0755    0.9391    0.7124 H        1 ZINC000000001798    0.1600
@<TRIPOS>BOND
1     1     2     1
2     1     15    1
3     1     16    1
4     1     17    1
5     2     3     1
6     2     7     1
7     2     4     1
8     4     5     1
9     4     18    1
10    4     19    1
11    5     6     1
12    5     20    1
13    5     21    1
14    6     7     1
15    6     22    1
16    6     23    1
17    7     8     1
18    7     9     1
19    9     14    ar
20    9     10    ar
21    10    11    ar
22    10    24    1
23    11    12    ar
24    11    25    1
25    12    13    ar
26    12    26    1
27    13    14    ar
28    14    27    1
@<TRIPOS>SUBSTRUCTURE
1   ZINC000000001798 1     RESIDUE    1   A     ZIN   1

@<TRIPOS>MOLECULE
ZINC000000001798
27    28    1     0     0
SMALL
USER_CHARGES
@<TRIPOS>ATOM
1      C1     -0.0178    1.4648    0.0101 C.3      1 ZINC000000001798   -0.0500
2      N2      0.0021   -0.0041    0.0020 N.4      1 ZINC000000001798   -0.3900
3      H3     -0.9431   -0.3572   -0.0042 H        1 ZINC000000001798    0.4200
4      C4      0.7209   -0.4853   -1.1970 C.3      1 ZINC000000001798   -0.0100
5      C5      2.1699   -0.7418   -0.7131 C.3      1 ZINC000000001798   -0.1400
6      C6      1.9295   -1.3010    0.7139 C.3      1 ZINC000000001798   -0.1300
7      C7      0.7082   -0.4973    1.1987 C.3      1 ZINC000000001798    0.0800
8      H8      1.0365    0.3441    1.8088 H        1 ZINC000000001798    0.1500
9      C9     -0.2051   -1.3872    2.0018 C.ar     1 ZINC000000001798   -0.2000
10     C10    -0.2047   -1.3263    3.3868 C.ar     1 ZINC000000001798   -0.0400
11     C11    -1.0622   -2.1635    4.0845 C.ar     1 ZINC000000001798   -0.1600
12     C12    -1.8827   -3.0245    3.3811 C.ar     1 ZINC000000001798    0.1300
13     N13    -1.8564   -3.0554    2.0629 N.ar     1 ZINC000000001798   -0.4700
14     C14    -1.0580   -2.2703    1.3667 C.ar     1 ZINC000000001798    0.1000
15     H15     1.0047    1.8421    0.0024 H        1 ZINC000000001798    0.1200
16     H16    -0.5450    1.8259   -0.8730 H        1 ZINC000000001798    0.1300
17     H17    -0.5280    1.8163    0.9069 H        1 ZINC000000001798    0.1200
18     H18     0.2735   -1.4098   -1.5620 H        1 ZINC000000001798    0.1300
19     H19     0.7103    0.2761   -1.9768 H        1 ZINC000000001798    0.1400
20     H20     2.6670   -1.4795   -1.3430 H        1 ZINC000000001798    0.1200
21     H21     2.7398    0.1867   -0.6778 H        1 ZINC000000001798    0.1000
22     H22     1.7014   -2.3662    0.6770 H        1 ZINC000000001798    0.1000
23     H23     2.7927   -1.1125    1.3522 H        1 ZINC000000001798    0.1200
24     H24     0.4482   -0.6433    3.9099 H        1 ZINC000000001798    0.1500
25     H25    -1.0881   -2.1431    5.1640 H        1 ZINC000000001798    0.1500
26     H26    -2.5531   -3.6800    3.9171 H        1 ZINC000000001798    0.1700
27     H27    -1.0642   -2.3240    0.2881 H        1 ZINC000000001798    0.1500
@<TRIPOS>BOND
1     1     2     1
2     1     15    1
3     1     16    1
4     1     17    1
5     2     3     1
6     2     7     1
7     2     4     1
8     4     5     1
9     4     18    1
10    4     19    1
11    5     6     1
12    5     20    1
13    5     21    1
14    6     7     1
15    6     22    1
16    6     23    1
17    7     8     1
18    7     9     1
19    9     14    ar
20    9     10    ar
21    10    11    ar
22    10    24    1
23    11    12    ar
24    11    25    1
25    12    13    ar
26    12    26    1
27    13    14    ar
28    14    27    1
@<TRIPOS>SUBSTRUCTURE
1   ZINC000000001798 1     RESIDUE    1   A     ZIN   1

@<TRIPOS>MOLECULE
ZINC000000001798
26    27    1     0     0
SMALL
USER_CHARGES
@<TRIPOS>ATOM
1      C1     -0.8150    1.2367    0.7553 C.3      1 ZINC000000001798    0.0100
2      N2     -0.4517   -0.1541    0.4529 N.3      1 ZINC000000001798   -0.5200
3      C3     -1.5112   -1.0863    0.8939 C.3      1 ZINC000000001798    0.0400
4      C4     -0.7551   -2.3641    1.3356 C.3      1 ZINC000000001798   -0.1300
5      C5      0.5155   -1.7647    1.9938 C.3      1 ZINC000000001798   -0.1400
6      C6      0.8094   -0.5277    1.1191 C.3      1 ZINC000000001798    0.1100
7      H7      1.5648   -0.7725    0.3725 H        1 ZINC000000001798    0.1000
8      C8      1.2926    0.6083    1.9835 C.ar     1 ZINC000000001798   -0.1500
9      C9      0.5636    1.0044    3.0941 C.ar     1 ZINC000000001798   -0.0700
10     C10     1.0467    2.0541    3.8607 C.ar     1 ZINC000000001798   -0.1700
11     C11     2.2303    2.6662    3.4947 C.ar     1 ZINC000000001798    0.1000
12     N12     2.8977    2.2627    2.4311 N.ar     1 ZINC000000001798   -0.4800
13     C13     2.4711    1.2647    1.6823 C.ar     1 ZINC000000001798    0.1100
14     H14     0.0348    1.8873    0.5486 H        1 ZINC000000001798    0.0700
15     H15    -1.6601    1.5347    0.1348 H        1 ZINC000000001798    0.0700
16     H16    -1.0891    1.3202    1.8070 H        1 ZINC000000001798    0.0400
17     H17    -2.0638   -0.6632    1.7328 H        1 ZINC000000001798    0.0500
18     H18    -2.1865   -1.3112    0.0684 H        1 ZINC000000001798    0.0800
19     H19    -1.3388   -2.9325    2.0598 H        1 ZINC000000001798    0.0800
20     H20    -0.4952   -2.9810    0.4754 H        1 ZINC000000001798    0.0800
21     H21     0.3135   -1.4694    3.0234 H        1 ZINC000000001798    0.0700
22     H22     1.3428   -2.4729    1.9501 H        1 ZINC000000001798    0.0800
23     H23    -0.3589    0.5074    3.3560 H        1 ZINC000000001798    0.1300
24     H24     0.5046    2.3893    4.7326 H        1 ZINC000000001798    0.1400
25     H25     2.6131    3.4847    4.0862 H        1 ZINC000000001798    0.1600
26     H26     3.0447    0.9624    0.8186 H        1 ZINC000000001798    0.1600
@<TRIPOS>BOND
1     1     2     1
2     1     14    1
3     1     15    1
4     1     16    1
5     2     6     1
6     2     3     1
7     3     4     1
8     3     17    1
9     3     18    1
10    4     5     1
11    4     19    1
12    4     20    1
13    5     6     1
14    5     21    1
15    5     22    1
16    6     7     1
17    6     8     1
18    8     13    ar
19    8     9     ar
20    9     10    ar
21    9     23    1
22    10    11    ar
23    10    24    1
24    11    12    ar
25    11    25    1
26    12    13    ar
27    13    26    1
@<TRIPOS>SUBSTRUCTURE
1   ZINC000000001798 1     RESIDUE    1   A     ZIN   1
