@<TRIPOS>MOLECULE
ZINC000003201907
46    49    1     0     0
SMALL
USER_CHARGES
@<TRIPOS>ATOM
1      C1     -0.0173    1.4248    0.0099 C.3      1 ZINC000003201907    0.0200
2      O2      0.0021   -0.0041    0.0020 O.3      1 ZINC000003201907   -0.3100
3      C3      0.6258   -0.6184    1.0415 C.ar     1 ZINC000003201907    0.1500
4      C4      1.2033    0.1351    2.0529 C.ar     1 ZINC000003201907   -0.2000
5      C5      1.8260   -0.4960    3.1085 C.ar     1 ZINC000003201907   -0.0700
6      C6      1.8807   -1.8835    3.1715 C.ar     1 ZINC000003201907   -0.1400
7      C7      2.5371   -2.5036    4.3752 C.3      1 ZINC000003201907   -0.0800
8      C8      2.7506   -3.9972    4.2115 C.3      1 ZINC000003201907    0.0300
9      H9      2.8890   -4.4221    5.2057 H        1 ZINC000003201907    0.1400
10     C10     1.5056   -4.6421    3.6020 C.3      1 ZINC000003201907   -0.0800
11     H11     1.6147   -5.7266    3.6034 H        1 ZINC000003201907    0.1000
12     C12     0.2699   -4.2461    4.4123 C.3      1 ZINC000003201907   -0.1100
13     C13    -0.9785   -4.8455    3.7615 C.3      1 ZINC000003201907   -0.1200
14     C14    -1.1208   -4.3091    2.3357 C.3      1 ZINC000003201907   -0.1200
15     C15     0.1138   -4.6987    1.5188 C.3      1 ZINC000003201907   -0.1100
16     C16     1.3760   -4.1374    2.1626 C.3      1 ZINC000003201907   -0.0200
17     C17     2.6161   -4.5595    1.3616 C.3      1 ZINC000003201907   -0.1300
18     C18     3.8359   -3.8962    2.0130 C.3      1 ZINC000003201907   -0.0100
19     N19     3.9353   -4.3139    3.4265 N.4      1 ZINC000003201907   -0.3700
20     H20     4.7370   -3.8664    3.8449 H        1 ZINC000003201907    0.4200
21     C21     4.1193   -5.7703    3.4818 C.3      1 ZINC000003201907   -0.0600
22     C22     1.3210   -2.6308    2.1583 C.ar     1 ZINC000003201907   -0.0300
23     C23     0.6840   -2.0014    1.1008 C.ar     1 ZINC000003201907   -0.1500
24     H24     1.0053    1.8021    0.0021 H        1 ZINC000003201907    0.0600
25     H25    -0.5445    1.7859   -0.8732 H        1 ZINC000003201907    0.1100
26     H26    -0.5275    1.7763    0.9067 H        1 ZINC000003201907    0.0600
27     H27     1.1654    1.2138    2.0133 H        1 ZINC000003201907    0.1400
28     H28     2.2760    0.0932    3.8939 H        1 ZINC000003201907    0.1300
29     H29     3.5028   -2.0246    4.5368 H        1 ZINC000003201907    0.0900
30     H30     1.9085   -2.3304    5.2487 H        1 ZINC000003201907    0.1200
31     H31     0.3663   -4.6240    5.4302 H        1 ZINC000003201907    0.0700
32     H32     0.1825   -3.1599    4.4345 H        1 ZINC000003201907    0.0800
33     H33    -0.8876   -5.9313    3.7335 H        1 ZINC000003201907    0.0700
34     H34    -1.8587   -4.5700    4.3425 H        1 ZINC000003201907    0.0700
35     H35    -2.0114   -4.7357    1.8742 H        1 ZINC000003201907    0.0700
36     H36    -1.2104   -3.2231    2.3633 H        1 ZINC000003201907    0.0700
37     H37     0.1958   -5.7850    1.4807 H        1 ZINC000003201907    0.0700
38     H38     0.0176   -4.3068    0.5063 H        1 ZINC000003201907    0.0800
39     H39     2.7246   -5.6437    1.3917 H        1 ZINC000003201907    0.1000
40     H40     2.5207   -4.2250    0.3286 H        1 ZINC000003201907    0.1100
41     H41     4.7342   -4.1636    1.4566 H        1 ZINC000003201907    0.1400
42     H42     3.7104   -2.8135    1.9988 H        1 ZINC000003201907    0.1300
43     H43     5.0329   -6.0415    2.9529 H        1 ZINC000003201907    0.1200
44     H44     4.1937   -6.0879    4.5219 H        1 ZINC000003201907    0.1200
45     H45     3.2677   -6.2623    3.0117 H        1 ZINC000003201907    0.1200
46     H46     0.2343   -2.5920    0.3163 H        1 ZINC000003201907    0.1400
@<TRIPOS>BOND
1     1     2     1
2     1     24    1
3     1     25    1
4     1     26    1
5     2     3     1
6     3     23    ar
7     3     4     ar
8     4     5     ar
9     4     27    1
10    5     6     ar
11    5     28    1
12    6     22    ar
13    6     7     1
14    7     8     1
15    7     29    1
16    7     30    1
17    8     9     1
18    8     19    1
19    8     10    1
20    10    11    1
21    10    16    1
22    10    12    1
23    12    13    1
24    12    31    1
25    12    32    1
26    13    14    1
27    13    33    1
28    13    34    1
29    14    15    1
30    14    35    1
31    14    36    1
32    15    16    1
33    15    37    1
34    15    38    1
35    16    17    1
36    16    22    1
37    17    18    1
38    17    39    1
39    17    40    1
40    18    19    1
41    18    41    1
42    18    42    1
43    19    20    1
44    19    21    1
45    21    43    1
46    21    44    1
47    21    45    1
48    22    23    ar
49    23    46    1
@<TRIPOS>SUBSTRUCTURE
1   ZINC000003201907 1     RESIDUE    1   A     ZIN   1

@<TRIPOS>MOLECULE
ZINC000003201907
46    49    1     0     0
SMALL
USER_CHARGES
@<TRIPOS>ATOM
1      C1     -0.1427    1.4561    0.2162 C.3      1 ZINC000003201907    0.0200
2      O2     -0.1045    0.0283    0.1711 O.3      1 ZINC000003201907   -0.3100
3      C3      0.5425   -0.6039    1.1853 C.ar     1 ZINC000003201907    0.1500
4      C4      1.1246    0.1312    2.2076 C.ar     1 ZINC000003201907   -0.2000
5      C5      1.7711   -0.5183    3.2375 C.ar     1 ZINC000003201907   -0.0700
6      C6      1.8451   -1.9060    3.2638 C.ar     1 ZINC000003201907   -0.1400
7      C7      2.5272   -2.5478    4.4416 C.3      1 ZINC000003201907   -0.0900
8      C8      2.7581   -4.0337    4.2363 C.3      1 ZINC000003201907    0.0300
9      H9      2.9166   -4.4821    5.2170 H        1 ZINC000003201907    0.1400
10     C10     1.5130   -4.6796    3.6280 C.3      1 ZINC000003201907   -0.0800
11     H11     1.6365   -5.7622    3.5998 H        1 ZINC000003201907    0.1000
12     C12     0.2842   -4.3215    4.4659 C.3      1 ZINC000003201907   -0.1100
13     C13    -0.9656   -4.9210    3.8177 C.3      1 ZINC000003201907   -0.1200
14     C14    -1.1358   -4.3502    2.4084 C.3      1 ZINC000003201907   -0.1200
15     C15     0.0918   -4.7018    1.5642 C.3      1 ZINC000003201907   -0.1100
16     C16     1.3557   -4.1400    2.2043 C.3      1 ZINC000003201907   -0.0200
17     C17     2.5895   -4.5244    1.3749 C.3      1 ZINC000003201907   -0.1300
18     C18     3.8097   -3.8614    2.0258 C.3      1 ZINC000003201907   -0.0100
19     N19     3.9353   -4.3139    3.4265 N.4      1 ZINC000003201907   -0.3800
20     H20     4.0769   -5.3129    3.4367 H        1 ZINC000003201907    0.4200
21     C21     5.1013   -3.6608    4.0362 C.3      1 ZINC000003201907   -0.0500
22     C22     1.2806   -2.6347    2.2397 C.ar     1 ZINC000003201907   -0.0300
23     C23     0.6200   -1.9871    1.2080 C.ar     1 ZINC000003201907   -0.1500
24     H24     0.8746    1.8474    0.2036 H        1 ZINC000003201907    0.0600
25     H25    -0.6875    1.8325   -0.6497 H        1 ZINC000003201907    0.1100
26     H26    -0.6444    1.7774    1.1289 H        1 ZINC000003201907    0.0600
27     H27     1.0718    1.2099    2.1964 H        1 ZINC000003201907    0.1400
28     H28     2.2246    0.0567    4.0313 H        1 ZINC000003201907    0.1300
29     H29     3.4887   -2.0599    4.6017 H        1 ZINC000003201907    0.0900
30     H30     1.9092   -2.4057    5.3281 H        1 ZINC000003201907    0.1200
31     H31     0.4004   -4.7241    5.4722 H        1 ZINC000003201907    0.0700
32     H32     0.1826   -3.2375    4.5174 H        1 ZINC000003201907    0.0800
33     H33    -0.8607   -6.0044    3.7603 H        1 ZINC000003201907    0.0700
34     H34    -1.8407   -4.6725    4.4181 H        1 ZINC000003201907    0.0700
35     H35    -2.0273   -4.7769    1.9487 H        1 ZINC000003201907    0.0700
36     H36    -1.2394   -3.2666    2.4653 H        1 ZINC000003201907    0.0700
37     H37     0.1877   -5.7855    1.4969 H        1 ZINC000003201907    0.0700
38     H38    -0.0244   -4.2853    0.5636 H        1 ZINC000003201907    0.0800
39     H39     2.7127   -5.6074    1.3754 H        1 ZINC000003201907    0.1000
40     H40     2.4746   -4.1648    0.3524 H        1 ZINC000003201907    0.1200
41     H41     4.7033   -4.1021    1.4500 H        1 ZINC000003201907    0.1400
42     H42     3.6697   -2.7806    2.0415 H        1 ZINC000003201907    0.1300
43     H43     5.0253   -2.5819    3.9012 H        1 ZINC000003201907    0.1200
44     H44     5.1320   -3.8924    5.1009 H        1 ZINC000003201907    0.1200
45     H45     6.0117   -4.0235    3.5591 H        1 ZINC000003201907    0.1300
46     H46     0.1668   -2.5635    0.4150 H        1 ZINC000003201907    0.1400
@<TRIPOS>BOND
1     1     2     1
2     1     24    1
3     1     25    1
4     1     26    1
5     2     3     1
6     3     23    ar
7     3     4     ar
8     4     5     ar
9     4     27    1
10    5     6     ar
11    5     28    1
12    6     22    ar
13    6     7     1
14    7     8     1
15    7     29    1
16    7     30    1
17    8     9     1
18    8     19    1
19    8     10    1
20    10    11    1
21    10    16    1
22    10    12    1
23    12    13    1
24    12    31    1
25    12    32    1
26    13    14    1
27    13    33    1
28    13    34    1
29    14    15    1
30    14    35    1
31    14    36    1
32    15    16    1
33    15    37    1
34    15    38    1
35    16    17    1
36    16    22    1
37    17    18    1
38    17    39    1
39    17    40    1
40    18    19    1
41    18    41    1
42    18    42    1
43    19    20    1
44    19    21    1
45    21    43    1
46    21    44    1
47    21    45    1
48    22    23    ar
49    23    46    1
@<TRIPOS>SUBSTRUCTURE
1   ZINC000003201907 1     RESIDUE    1   A     ZIN   1
