@<TRIPOS>MOLECULE
ZINC000022010382
31    32    1     0     0
SMALL
USER_CHARGES
@<TRIPOS>ATOM
1      C1     -0.0187    1.5258    0.0104 C.3      1 ZINC000022010382   -0.1900
2      C2      0.0021   -0.0041    0.0020 C.3      1 ZINC000022010382    0.0500
3      H3      0.5122   -0.3562   -0.8946 H        1 ZINC000022010382    0.0900
4      C4     -1.4339   -0.5349    0.0151 C.3      1 ZINC000022010382    0.1400
5      H5     -1.4202   -1.6231   -0.0451 H        1 ZINC000022010382    0.0700
6      C6     -2.1880    0.0248   -1.1636 C.ar     1 ZINC000022010382   -0.0800
7      C7     -2.6942    1.3101   -1.1131 C.ar     1 ZINC000022010382   -0.0900
8      C8     -3.3859    1.8235   -2.1942 C.ar     1 ZINC000022010382   -0.1300
9      C9     -3.5711    1.0516   -3.3260 C.ar     1 ZINC000022010382   -0.1200
10     C10    -3.0641   -0.2334   -3.3768 C.ar     1 ZINC000022010382   -0.1200
11     C11    -2.3686   -0.7452   -2.2973 C.ar     1 ZINC000022010382   -0.1100
12     O12    -2.0748   -0.1317    1.2283 O.3      1 ZINC000022010382   -0.3700
13     C13    -1.4119   -0.5903    2.4096 C.3      1 ZINC000022010382    0.0600
14     C14     0.0243   -0.0600    2.4208 C.3      1 ZINC000022010382    0.0100
15     N15     0.7112   -0.4920    1.1938 N.3      1 ZINC000022010382   -0.5400
16     C16     2.1123   -0.0507    1.1917 C.3      1 ZINC000022010382    0.0200
17     H17     1.0039    1.9031    0.0027 H        1 ZINC000022010382    0.0600
18     H18    -0.5459    1.8868   -0.8726 H        1 ZINC000022010382    0.0700
19     H19    -0.5289    1.8773    0.9072 H        1 ZINC000022010382    0.0600
20     H20    -2.5495    1.9131   -0.2289 H        1 ZINC000022010382    0.1300
21     H21    -3.7820    2.8274   -2.1545 H        1 ZINC000022010382    0.1200
22     H22    -4.1121    1.4525   -4.1704 H        1 ZINC000022010382    0.1200
23     H23    -3.2090   -0.8365   -4.2609 H        1 ZINC000022010382    0.1200
24     H24    -1.9725   -1.7492   -2.3370 H        1 ZINC000022010382    0.1200
25     H25    -1.9416   -0.2249    3.2894 H        1 ZINC000022010382    0.1000
26     H26    -1.3976   -1.6801    2.4191 H        1 ZINC000022010382    0.0600
27     H27     0.0099    1.0290    2.4655 H        1 ZINC000022010382    0.0500
28     H28     0.5508   -0.4536    3.2903 H        1 ZINC000022010382    0.0900
29     H29     2.6466   -0.5337    2.0098 H        1 ZINC000022010382    0.0700
30     H30     2.5772   -0.3219    0.2439 H        1 ZINC000022010382    0.0700
31     H31     2.1527    1.0310    1.3199 H        1 ZINC000022010382    0.0300
@<TRIPOS>BOND
1     1     2     1
2     1     17    1
3     1     18    1
4     1     19    1
5     2     3     1
6     2     15    1
7     2     4     1
8     4     5     1
9     4     6     1
10    4     12    1
11    6     11    ar
12    6     7     ar
13    7     8     ar
14    7     20    1
15    8     9     ar
16    8     21    1
17    9     10    ar
18    9     22    1
19    10    11    ar
20    10    23    1
21    11    24    1
22    12    13    1
23    13    14    1
24    13    25    1
25    13    26    1
26    14    15    1
27    14    27    1
28    14    28    1
29    15    16    1
30    16    29    1
31    16    30    1
32    16    31    1
@<TRIPOS>SUBSTRUCTURE
1   ZINC000022010382 1     RESIDUE    1   A     ZIN   1

@<TRIPOS>MOLECULE
ZINC000022010382
32    33    1     0     0
SMALL
USER_CHARGES
@<TRIPOS>ATOM
1      C1     -0.0187    1.5258    0.0104 C.3      1 ZINC000022010382   -0.1900
2      C2      0.0021   -0.0041    0.0020 C.3      1 ZINC000022010382    0.0000
3      H3      0.5122   -0.3559   -0.8947 H        1 ZINC000022010382    0.1500
4      C4     -1.4338   -0.5343    0.0138 C.3      1 ZINC000022010382    0.1300
5      H5     -1.4201   -1.6232   -0.0327 H        1 ZINC000022010382    0.0900
6      C6     -2.1814    0.0109   -1.1757 C.ar     1 ZINC000022010382   -0.1100
7      C7     -2.6875    1.2968   -1.1439 C.ar     1 ZINC000022010382   -0.0900
8      C8     -3.3733    1.7969   -2.2350 C.ar     1 ZINC000022010382   -0.1200
9      C9     -3.5525    1.0112   -3.3581 C.ar     1 ZINC000022010382   -0.1000
10     C10    -3.0456   -0.2745   -3.3903 C.ar     1 ZINC000022010382   -0.1200
11     C11    -2.3562   -0.7730   -2.3008 C.ar     1 ZINC000022010382   -0.1000
12     O12    -2.0811   -0.1158    1.2187 O.3      1 ZINC000022010382   -0.3500
13     C13    -1.4134   -0.5462    2.4081 C.3      1 ZINC000022010382    0.0400
14     C14     0.0225   -0.0160    2.4008 C.3      1 ZINC000022010382   -0.0500
15     N15     0.7119   -0.4912    1.1928 N.4      1 ZINC000022010382   -0.3800
16     H16     0.7247   -1.5001    1.1876 H        1 ZINC000022010382    0.4200
17     C17     2.0905    0.0162    1.1839 C.3      1 ZINC000022010382   -0.0500
18     H18     1.0039    1.9031    0.0027 H        1 ZINC000022010382    0.0800
19     H19    -0.5459    1.8868   -0.8726 H        1 ZINC000022010382    0.1100
20     H20    -0.5289    1.8773    0.9072 H        1 ZINC000022010382    0.0900
21     H21    -2.5475    1.9107   -0.2664 H        1 ZINC000022010382    0.1300
22     H22    -3.7693    2.8014   -2.2098 H        1 ZINC000022010382    0.1300
23     H23    -4.0889    1.4016   -4.2103 H        1 ZINC000022010382    0.1300
24     H24    -3.1860   -0.8885   -4.2676 H        1 ZINC000022010382    0.1300
25     H25    -1.9601   -1.7775   -2.3259 H        1 ZINC000022010382    0.1300
26     H26    -1.9396   -0.1599    3.2810 H        1 ZINC000022010382    0.1400
27     H27    -1.3990   -1.6355    2.4436 H        1 ZINC000022010382    0.0800
28     H28     0.0077    1.0739    2.4059 H        1 ZINC000022010382    0.1400
29     H29     0.5480   -0.3769    3.2849 H        1 ZINC000022010382    0.1400
30     H30     2.6162   -0.3448    2.0679 H        1 ZINC000022010382    0.1300
31     H31     2.6016   -0.3363    0.2880 H        1 ZINC000022010382    0.1300
32     H32     2.0765    1.1061    1.1892 H        1 ZINC000022010382    0.1300
@<TRIPOS>BOND
1     1     2     1
2     1     18    1
3     1     19    1
4     1     20    1
5     2     3     1
6     2     15    1
7     2     4     1
8     4     5     1
9     4     6     1
10    4     12    1
11    6     11    ar
12    6     7     ar
13    7     8     ar
14    7     21    1
15    8     9     ar
16    8     22    1
17    9     10    ar
18    9     23    1
19    10    11    ar
20    10    24    1
21    11    25    1
22    12    13    1
23    13    14    1
24    13    26    1
25    13    27    1
26    14    15    1
27    14    28    1
28    14    29    1
29    15    16    1
30    15    17    1
31    17    30    1
32    17    31    1
33    17    32    1
@<TRIPOS>SUBSTRUCTURE
1   ZINC000022010382 1     RESIDUE    1   A     ZIN   1

@<TRIPOS>MOLECULE
ZINC000022010382
32    33    1     0     0
SMALL
USER_CHARGES
@<TRIPOS>ATOM
1      C1     -0.0187    1.5258    0.0104 C.3      1 ZINC000022010382   -0.1900
2      C2      0.0021   -0.0041    0.0020 C.3      1 ZINC000022010382    0.0000
3      H3      0.5122   -0.3559   -0.8947 H        1 ZINC000022010382    0.1500
4      C4     -1.4338   -0.5343    0.0138 C.3      1 ZINC000022010382    0.1300
5      H5     -1.4201   -1.6232   -0.0327 H        1 ZINC000022010382    0.0900
6      C6     -2.1814    0.0109   -1.1757 C.ar     1 ZINC000022010382   -0.1100
7      C7     -2.6875    1.2968   -1.1439 C.ar     1 ZINC000022010382   -0.0900
8      C8     -3.3733    1.7969   -2.2350 C.ar     1 ZINC000022010382   -0.1200
9      C9     -3.5525    1.0112   -3.3581 C.ar     1 ZINC000022010382   -0.1000
10     C10    -3.0456   -0.2745   -3.3903 C.ar     1 ZINC000022010382   -0.1200
11     C11    -2.3562   -0.7730   -2.3008 C.ar     1 ZINC000022010382   -0.1000
12     O12    -2.0811   -0.1158    1.2187 O.3      1 ZINC000022010382   -0.3500
13     C13    -1.4134   -0.5462    2.4081 C.3      1 ZINC000022010382    0.0300
14     C14     0.0225   -0.0160    2.4008 C.3      1 ZINC000022010382   -0.0500
15     N15     0.7119   -0.4912    1.1928 N.4      1 ZINC000022010382   -0.3800
16     H16     1.6587   -0.1426    1.1866 H        1 ZINC000022010382    0.4300
17     C17     0.7307   -1.9601    1.1854 C.3      1 ZINC000022010382   -0.0600
18     H18     1.0039    1.9031    0.0027 H        1 ZINC000022010382    0.0800
19     H19    -0.5459    1.8868   -0.8726 H        1 ZINC000022010382    0.1100
20     H20    -0.5289    1.8773    0.9072 H        1 ZINC000022010382    0.0900
21     H21    -2.5475    1.9107   -0.2664 H        1 ZINC000022010382    0.1300
22     H22    -3.7693    2.8014   -2.2098 H        1 ZINC000022010382    0.1300
23     H23    -4.0889    1.4016   -4.2103 H        1 ZINC000022010382    0.1300
24     H24    -3.1860   -0.8885   -4.2676 H        1 ZINC000022010382    0.1300
25     H25    -1.9601   -1.7775   -2.3259 H        1 ZINC000022010382    0.1300
26     H26    -1.9396   -0.1599    3.2810 H        1 ZINC000022010382    0.1400
27     H27    -1.3990   -1.6355    2.4436 H        1 ZINC000022010382    0.0800
28     H28     0.0077    1.0739    2.4059 H        1 ZINC000022010382    0.1400
29     H29     0.5480   -0.3769    3.2849 H        1 ZINC000022010382    0.1400
30     H30    -0.2922   -2.3366    1.1917 H        1 ZINC000022010382    0.1200
31     H31     1.2419   -2.3124    0.2895 H        1 ZINC000022010382    0.1300
32     H32     1.2562   -2.3212    2.0694 H        1 ZINC000022010382    0.1300
@<TRIPOS>BOND
1     1     2     1
2     1     18    1
3     1     19    1
4     1     20    1
5     2     3     1
6     2     15    1
7     2     4     1
8     4     5     1
9     4     6     1
10    4     12    1
11    6     11    ar
12    6     7     ar
13    7     8     ar
14    7     21    1
15    8     9     ar
16    8     22    1
17    9     10    ar
18    9     23    1
19    10    11    ar
20    10    24    1
21    11    25    1
22    12    13    1
23    13    14    1
24    13    26    1
25    13    27    1
26    14    15    1
27    14    28    1
28    14    29    1
29    15    16    1
30    15    17    1
31    17    30    1
32    17    31    1
33    17    32    1
@<TRIPOS>SUBSTRUCTURE
1   ZINC000022010382 1     RESIDUE    1   A     ZIN   1
