@<TRIPOS>MOLECULE
ZINC000022056030
  32   32    0    0    0
SMALL
USER_CHARGES
NO_NAME
@<TRIPOS>ATOM
    1 C1        0.5583    -1.5229    -0.8433 C.1    1 <0>      -0.0600
    2 C2        0.2965    -0.3929    -0.6625 C.1    1 <0>      -0.3000
    3 C3       -0.0319     1.0240    -0.4357 C.3    1 <0>       0.1200
    4 N4        1.2066     1.8128    -0.3925 N.4    1 <0>      -0.3900
    5 H5        1.8269     1.4272     0.3036 H      1 <0>       0.4300
    6 C6        1.8599     1.7709    -1.7076 C.3    1 <0>      -0.0500
    7 C7        0.8887     3.2049    -0.0478 C.3    1 <0>       0.0300
    8 H8        0.2168     3.6208    -0.7986 H      1 <0>       0.1400
    9 C9        0.2110     3.2488     1.3233 C.3    1 <0>      -0.1900
   10 C10       2.1783     4.0272    -0.0058 C.3    1 <0>      -0.1000
   11 C11       1.8421     5.4771     0.2304 C.ar   1 <0>      -0.1100
   12 C12       1.4853     6.2859    -0.8323 C.ar   1 <0>      -0.1100
   13 C13       1.1769     7.6159    -0.6156 C.ar   1 <0>      -0.1100
   14 C14       1.2249     8.1369     0.6639 C.ar   1 <0>      -0.1000
   15 C15       1.5808     7.3279     1.7267 C.ar   1 <0>      -0.1100
   16 C16       1.8850     5.9969     1.5106 C.ar   1 <0>      -0.1100
   17 H17       0.7926    -2.5336    -1.0051 H      1 <0>       0.2400
   18 H18      -0.6644     1.3847    -1.2468 H      1 <0>       0.1500
   19 H19      -0.5616     1.1271     0.5114 H      1 <0>       0.1500
   20 H20       1.9900     0.7336    -2.0158 H      1 <0>       0.1200
   21 H21       1.2405     2.2919    -2.4377 H      1 <0>       0.1200
   22 H22       2.8338     2.2563    -1.6450 H      1 <0>       0.1300
   23 H23       0.8829     2.8329     2.0741 H      1 <0>       0.0800
   24 H24      -0.0248     4.2818     1.5791 H      1 <0>       0.1100
   25 H25      -0.7077     2.6630     1.2934 H      1 <0>       0.0800
   26 H26       2.8138     3.6652     0.8023 H      1 <0>       0.1000
   27 H27       2.7046     3.9262    -0.9550 H      1 <0>       0.1000
   28 H28       1.4478     5.8789    -1.8320 H      1 <0>       0.1200
   29 H29       0.8989     8.2480    -1.4460 H      1 <0>       0.1300
   30 H30       0.9847     9.1762     0.8331 H      1 <0>       0.1300
   31 H31       1.6186     7.7351     2.7263 H      1 <0>       0.1300
   32 H32       2.1630     5.3648     2.3410 H      1 <0>       0.1200
@<TRIPOS>BOND
   1    1    2 3
   2    1   17 1
   3    2    3 1
   4    3    4 1
   5    3   18 1
   6    3   19 1
   7    4    5 1
   8    4    6 1
   9    4    7 1
  10    6   20 1
  11    6   21 1
  12    6   22 1
  13    7    8 1
  14    7    9 1
  15    7   10 1
  16    9   23 1
  17    9   24 1
  18    9   25 1
  19   10   11 1
  20   10   26 1
  21   10   27 1
  22   11   16 ar
  23   11   12 ar
  24   12   13 ar
  25   12   28 1
  26   13   14 ar
  27   13   29 1
  28   14   15 ar
  29   14   30 1
  30   15   16 ar
  31   15   31 1
  32   16   32 1

@<TRIPOS>MOLECULE
ZINC000022056030
  32   32    0    0    0
SMALL
USER_CHARGES
NO_NAME
@<TRIPOS>ATOM
    1 C1       -0.5822    -1.0119     0.5107 C.1    1 <0>      -0.0600
    2 C2       -0.5037     0.1512     0.3712 C.1    1 <0>      -0.3000
    3 C3       -0.4053     1.6094     0.1962 C.3    1 <0>       0.1200
    4 N4        1.0093     2.0044     0.1642 N.4    1 <0>      -0.3900
    5 H5        1.4866     1.4874    -0.5590 H      1 <0>       0.4300
    6 C6        1.6284     1.7133     1.4642 C.3    1 <0>      -0.0500
    7 C7        1.1097     3.4432    -0.1148 C.3    1 <0>       0.0300
    8 H8        0.5229     3.9972     0.6178 H      1 <0>       0.1400
    9 C9        2.5741     3.8781    -0.0295 C.3    1 <0>      -0.1800
   10 C10       0.5738     3.7290    -1.5190 C.3    1 <0>      -0.1000
   11 C11       0.5584     5.2169    -1.7576 C.ar   1 <0>      -0.1100
   12 C12      -0.5117     5.9758    -1.3220 C.ar   1 <0>      -0.1100
   13 C13      -0.5258     7.3406    -1.5408 C.ar   1 <0>      -0.1100
   14 C14       0.5305     7.9467    -2.1949 C.ar   1 <0>      -0.1000
   15 C15       1.6011     7.1879    -2.6298 C.ar   1 <0>      -0.1100
   16 C16       1.6171     5.8237    -2.4072 C.ar   1 <0>      -0.1100
   17 H17      -0.6524    -2.0520     0.6355 H      1 <0>       0.2400
   18 H18      -0.8838     1.8961    -0.7403 H      1 <0>       0.1500
   19 H19      -0.9035     2.1095     1.0267 H      1 <0>       0.1500
   20 H20       2.6780     2.0063     1.4405 H      1 <0>       0.1300
   21 H21       1.1128     2.2718     2.2454 H      1 <0>       0.1200
   22 H22       1.5539     0.6457     1.6712 H      1 <0>       0.1200
   23 H23       3.1610     3.3241    -0.7621 H      1 <0>       0.0800
   24 H24       2.6487     4.9457    -0.2365 H      1 <0>       0.1100
   25 H25       2.9559     3.6745     0.9709 H      1 <0>       0.0800
   26 H26       1.2159     3.2492    -2.2577 H      1 <0>       0.1000
   27 H27      -0.4391     3.3363    -1.6083 H      1 <0>       0.1000
   28 H28      -1.3369     5.5023    -0.8109 H      1 <0>       0.1200
   29 H29      -1.3622     7.9334    -1.2011 H      1 <0>       0.1300
   30 H30       0.5192     9.0129    -2.3666 H      1 <0>       0.1300
   31 H31       2.4262     7.6613    -3.1412 H      1 <0>       0.1300
   32 H32       2.4535     5.2309    -2.7469 H      1 <0>       0.1200
@<TRIPOS>BOND
   1    1    2 3
   2    1   17 1
   3    2    3 1
   4    3    4 1
   5    3   18 1
   6    3   19 1
   7    4    5 1
   8    4    6 1
   9    4    7 1
  10    6   20 1
  11    6   21 1
  12    6   22 1
  13    7    8 1
  14    7    9 1
  15    7   10 1
  16    9   23 1
  17    9   24 1
  18    9   25 1
  19   10   11 1
  20   10   26 1
  21   10   27 1
  22   11   16 ar
  23   11   12 ar
  24   12   13 ar
  25   12   28 1
  26   13   14 ar
  27   13   29 1
  28   14   15 ar
  29   14   30 1
  30   15   16 ar
  31   15   31 1
  32   16   32 1

@<TRIPOS>MOLECULE
ZINC000022056030
  31   31    0    0    0
SMALL
USER_CHARGES
NO_NAME
@<TRIPOS>ATOM
    1 C1        0.3293    -1.5019    -0.3967 C.1    1 <0>      -0.1900
    2 C2        0.1330    -0.3447    -0.3708 C.1    1 <0>      -0.1800
    3 C3       -0.1132     1.1062    -0.3382 C.3    1 <0>       0.1600
    4 N4        1.1686     1.8217    -0.3937 N.3    1 <0>      -0.5400
    5 C5        1.8347     1.6091    -1.6856 C.3    1 <0>       0.0200
    6 C6        0.9839     3.2543    -0.1261 C.3    1 <0>       0.0900
    7 H7        0.3026     3.6770    -0.8646 H      1 <0>       0.0500
    8 C8        0.3968     3.4399     1.2745 C.3    1 <0>      -0.1500
    9 C9        2.3348     3.9674    -0.2115 C.3    1 <0>      -0.0800
   10 C10       2.1296     5.4524    -0.0575 C.ar   1 <0>      -0.0800
   11 C11       1.7785     6.2189    -1.1530 C.ar   1 <0>      -0.1200
   12 C12       1.5902     7.5810    -1.0117 C.ar   1 <0>      -0.1200
   13 C13       1.7526     8.1766     0.2251 C.ar   1 <0>      -0.1200
   14 C14       2.1029     7.4100     1.3208 C.ar   1 <0>      -0.1200
   15 C15       2.2869     6.0472     1.1804 C.ar   1 <0>      -0.1100
   16 H16       0.5049    -2.5368    -0.4199 H      1 <0>       0.2200
   17 H17      -0.7251     1.3902    -1.1944 H      1 <0>       0.0600
   18 H18      -0.6345     1.3657     0.5831 H      1 <0>       0.1000
   19 H19       1.2538     2.0839    -2.4764 H      1 <0>       0.0300
   20 H20       2.8330     2.0458    -1.6560 H      1 <0>       0.0800
   21 H21       1.9116     0.5399    -1.8832 H      1 <0>       0.0700
   22 H22       0.2597     4.5028     1.4731 H      1 <0>       0.0700
   23 H23      -0.5656     2.9318     1.3354 H      1 <0>       0.0600
   24 H24       1.0781     3.0172     2.0130 H      1 <0>       0.0700
   25 H25       2.9871     3.6064     0.5837 H      1 <0>       0.0800
   26 H26       2.7934     3.7624    -1.1788 H      1 <0>       0.0800
   27 H27       1.6516     5.7535    -2.1193 H      1 <0>       0.1200
   28 H28       1.3166     8.1800    -1.8678 H      1 <0>       0.1200
   29 H29       1.6062     9.2410     0.3353 H      1 <0>       0.1200
   30 H30       2.2301     7.8754     2.2870 H      1 <0>       0.1200
   31 H31       2.5606     5.4482     2.0364 H      1 <0>       0.1200
@<TRIPOS>BOND
   1    1    2 3
   2    1   16 1
   3    2    3 1
   4    3    4 1
   5    3   17 1
   6    3   18 1
   7    4    5 1
   8    4    6 1
   9    5   19 1
  10    5   20 1
  11    5   21 1
  12    6    7 1
  13    6    8 1
  14    6    9 1
  15    8   22 1
  16    8   23 1
  17    8   24 1
  18    9   10 1
  19    9   25 1
  20    9   26 1
  21   10   15 ar
  22   10   11 ar
  23   11   12 ar
  24   11   27 1
  25   12   13 ar
  26   12   28 1
  27   13   14 ar
  28   13   29 1
  29   14   15 ar
  30   14   30 1
  31   15   31 1
