@<TRIPOS>MOLECULE
ZINC000012360535
  21   22    0    0    0
SMALL
USER_CHARGES
NO_NAME
@<TRIPOS>ATOM
    1 N1       -0.0164     1.3618     0.0095 N.3    1 <0>      -0.6100
    2 N2        0.0021    -0.0041     0.0020 N.pl3  1 <0>      -0.5100
    3 C3        0.6908    -0.6927     0.9868 C.ar   1 <0>       0.4700
    4 C4        0.7236    -2.1058     0.9884 C.ar   1 <0>      -0.1100
    5 C5        0.0777    -2.8790     0.0182 C.ar   1 <0>      -0.0700
    6 C6        0.1547    -4.2390     0.0854 C.ar   1 <0>      -0.0800
    7 C7        0.8654    -4.8690     1.1044 C.ar   1 <0>      -0.0500
    8 C8        1.5061    -4.1457     2.0661 C.ar   1 <0>      -0.0700
    9 C9        1.4485    -2.7466     2.0267 C.ar   1 <0>      -0.0400
   10 C10       2.0834    -1.9315     2.9820 C.ar   1 <0>       0.1500
   11 N11       1.9828    -0.6266     2.8760 N.ar   1 <0>      -0.2400
   12 N12       1.3343    -0.0409     1.9395 N.ar   1 <0>      -0.3600
   13 H13       1.3086     0.9287     1.9331 H      1 <0>       0.4700
   14 H14       0.9205     1.7362     0.0026 H      1 <0>       0.3600
   15 H15      -0.5549     1.7204    -0.7648 H      1 <0>       0.4000
   16 H16      -0.4671    -0.4917    -0.6930 H      1 <0>       0.4400
   17 H17      -0.4773    -2.4034    -0.7769 H      1 <0>       0.1500
   18 H18      -0.3436    -4.8370    -0.6631 H      1 <0>       0.1600
   19 H19       0.9093    -5.9477     1.1332 H      1 <0>       0.1600
   20 H20       2.0531    -4.6468     2.8511 H      1 <0>       0.1700
   21 H21       2.6455    -2.3732     3.7915 H      1 <0>       0.2200
@<TRIPOS>BOND
   1    1    2 1
   2    1   14 1
   3    1   15 1
   4    2    3 1
   5    2   16 1
   6    3   12 ar
   7    3    4 ar
   8    4    9 ar
   9    4    5 ar
  10    5    6 ar
  11    5   17 1
  12    6    7 ar
  13    6   18 1
  14    7    8 ar
  15    7   19 1
  16    8    9 ar
  17    8   20 1
  18    9   10 ar
  19   10   11 ar
  20   10   21 1
  21   11   12 ar
  22   12   13 1

@<TRIPOS>MOLECULE
ZINC000012360535
  20   21    0    0    0
SMALL
USER_CHARGES
NO_NAME
@<TRIPOS>ATOM
    1 N1       -0.0169     1.3968     0.0097 N.pl3  1 <0>      -0.7800
    2 N2        0.0021    -0.0041     0.0020 N.2    1 <0>      -0.2500
    3 C3        1.1410    -0.6412    -0.0123 C.2    1 <0>       0.2900
    4 N4        2.3743     0.0292    -0.0145 N.pl3  1 <0>      -0.6000
    5 N5        3.4351    -0.5332    -0.7419 N.2    1 <0>      -0.2300
    6 C6        3.4814    -1.8085    -0.9901 C.2    1 <0>       0.1000
    7 C7        2.4107    -2.6969    -0.5199 C.ar   1 <0>      -0.0900
    8 C8        2.5374    -4.0831    -0.5476 C.ar   1 <0>      -0.0900
    9 C9        1.4969    -4.8712    -0.0965 C.ar   1 <0>      -0.1100
   10 C10       0.3290    -4.2996     0.3824 C.ar   1 <0>      -0.1100
   11 C11       0.1834    -2.9248     0.4193 C.ar   1 <0>      -0.0800
   12 C12       1.2192    -2.1193    -0.0210 C.ar   1 <0>      -0.0200
   13 H13       0.8164     1.8932     0.0044 H      1 <0>       0.3700
   14 H14      -0.8635     1.8703     0.0163 H      1 <0>       0.4200
   15 H15       2.4905     0.8594     0.4736 H      1 <0>       0.4300
   16 H16       4.3123    -2.2171    -1.5459 H      1 <0>       0.1900
   17 H17       3.4430    -4.5389    -0.9196 H      1 <0>       0.1400
   18 H18       1.5946    -5.9466    -0.1174 H      1 <0>       0.1300
   19 H19      -0.4742    -4.9328     0.7292 H      1 <0>       0.1300
   20 H20      -0.7288    -2.4831     0.7925 H      1 <0>       0.1400
@<TRIPOS>BOND
   1    1    2 1
   2    1   13 1
   3    1   14 1
   4    2    3 2
   5    3   12 1
   6    3    4 1
   7    4    5 1
   8    4   15 1
   9    5    6 2
  10    6    7 1
  11    6   16 1
  12    7   12 ar
  13    7    8 ar
  14    8    9 ar
  15    8   17 1
  16    9   10 ar
  17    9   18 1
  18   10   11 ar
  19   10   19 1
  20   11   12 ar
  21   11   20 1

@<TRIPOS>MOLECULE
ZINC000012360535
  20   21    0    0    0
SMALL
USER_CHARGES
NO_NAME
@<TRIPOS>ATOM
    1 N1       -0.0164     1.3618     0.0095 N.3    1 <0>      -0.5900
    2 N2        0.0021    -0.0041     0.0020 N.pl3  1 <0>      -0.5500
    3 C3       -1.1879    -0.7128     0.0096 C.ar   1 <0>       0.3800
    4 C4       -1.1841    -2.1262     0.0079 C.ar   1 <0>      -0.1100
    5 C5       -0.0059    -2.8800    -0.0012 C.ar   1 <0>      -0.0900
    6 C6       -0.0822    -4.2417    -0.0019 C.ar   1 <0>      -0.1100
    7 C7       -1.3137    -4.8925     0.0059 C.ar   1 <0>      -0.0900
    8 C8       -2.4811    -4.1885     0.0145 C.ar   1 <0>      -0.1000
    9 C9       -2.4394    -2.7883     0.0164 C.ar   1 <0>      -0.0400
   10 C10      -3.5998    -1.9924     0.0256 C.ar   1 <0>       0.0200
   11 N11      -3.4773    -0.6850     0.0272 N.ar   1 <0>      -0.2200
   12 N12      -2.3482    -0.0803     0.0240 N.ar   1 <0>      -0.3200
   13 H13       0.9205     1.7362     0.0026 H      1 <0>       0.3600
   14 H14      -0.5549     1.7204    -0.7648 H      1 <0>       0.3500
   15 H15       0.8486    -0.4776    -0.0086 H      1 <0>       0.4100
   16 H16       0.9555    -2.3882    -0.0081 H      1 <0>       0.1300
   17 H17       0.8269    -4.8248    -0.0090 H      1 <0>       0.1300
   18 H18      -1.3442    -5.9720     0.0048 H      1 <0>       0.1300
   19 H19      -3.4293    -4.7056     0.0197 H      1 <0>       0.1400
   20 H20      -4.5778    -2.4505     0.0309 H      1 <0>       0.1700
@<TRIPOS>BOND
   1    1    2 1
   2    1   13 1
   3    1   14 1
   4    2    3 1
   5    2   15 1
   6    3   12 ar
   7    3    4 ar
   8    4    9 ar
   9    4    5 ar
  10    5    6 ar
  11    5   16 1
  12    6    7 ar
  13    6   17 1
  14    7    8 ar
  15    7   18 1
  16    8    9 ar
  17    8   19 1
  18    9   10 ar
  19   10   11 ar
  20   10   20 1
  21   11   12 ar
