@<TRIPOS>MOLECULE
ZINC000000000456
  40   41    0    0    0
SMALL
USER_CHARGES
NO_NAME
@<TRIPOS>ATOM
    1 C1       -2.1137    -3.0397     2.2528 C.3    1 <0>      -0.1100
    2 C2       -0.9975    -2.8610     1.2563 C.ar   1 <0>      -0.0900
    3 C3       -0.9903    -3.5961     0.0871 C.ar   1 <0>      -0.1200
    4 C4        0.0339    -3.4330    -0.8276 C.ar   1 <0>      -0.1100
    5 C5        1.0535    -2.5336    -0.5753 C.ar   1 <0>      -0.1200
    6 C6        1.0519    -1.7952     0.5918 C.ar   1 <0>      -0.0700
    7 C7        2.1633    -0.8149     0.8658 C.3    1 <0>      -0.1100
    8 C8        0.0220    -1.9528     1.5100 C.ar   1 <0>       0.1300
    9 N9        0.0172    -1.2058     2.6932 N.am   1 <0>      -0.6800
   10 C10       0.1064     0.1380     2.6421 C.2    1 <0>       0.5200
   11 O11       0.2908     0.6936     1.5798 O.2    1 <0>      -0.4900
   12 C12      -0.0229     0.9503     3.9048 C.3    1 <0>       0.0700
   13 H13      -0.6709     0.4275     4.6082 H      1 <0>       0.0600
   14 C14       1.3600     1.1424     4.5315 C.3    1 <0>      -0.1100
   15 C15       1.2263     1.9850     5.8030 C.3    1 <0>      -0.1200
   16 C16       0.5747     3.3253     5.4514 C.3    1 <0>      -0.1200
   17 C17      -0.7855     3.0700     4.7981 C.3    1 <0>       0.0600
   18 N18      -0.6034     2.2610     3.5861 N.3    1 <0>      -0.5200
   19 C19      -1.8701     2.1123     2.8573 C.3    1 <0>       0.0200
   20 H20      -2.8807    -2.2851     2.0785 H      1 <0>       0.0700
   21 H21      -2.5482    -4.0327     2.1375 H      1 <0>       0.0700
   22 H22      -1.7197    -2.9307     3.2632 H      1 <0>       0.0600
   23 H23      -1.7852    -4.2993    -0.1128 H      1 <0>       0.1300
   24 H24       0.0376    -4.0096    -1.7408 H      1 <0>       0.1200
   25 H25       1.8522    -2.4088    -1.2915 H      1 <0>       0.1300
   26 H26       1.9428     0.1316     0.3722 H      1 <0>       0.0900
   27 H27       2.2484    -0.6532     1.9403 H      1 <0>       0.0600
   28 H28       3.1025    -1.2142     0.4829 H      1 <0>       0.0600
   29 H29      -0.0504    -1.6551     3.5502 H      1 <0>       0.4100
   30 H30       1.7841     0.1701     4.7822 H      1 <0>       0.0700
   31 H31       2.0126     1.6531     3.8234 H      1 <0>       0.0800
   32 H32       0.6053     1.4567     6.5264 H      1 <0>       0.0600
   33 H33       2.2140     2.1608     6.2290 H      1 <0>       0.0700
   34 H34       0.4378     3.9126     6.3594 H      1 <0>       0.0700
   35 H35       1.2150     3.8704     4.7578 H      1 <0>       0.0700
   36 H36      -1.4298     2.5370     5.4973 H      1 <0>       0.0300
   37 H37      -1.2457     4.0220     4.5336 H      1 <0>       0.0800
   38 H38      -2.2451     3.0963     2.5758 H      1 <0>       0.0700
   39 H39      -1.7051     1.5161     1.9598 H      1 <0>       0.0800
   40 H40      -2.6001     1.6141     3.4953 H      1 <0>       0.0200
@<TRIPOS>BOND
   1    1    2 1
   2    1   20 1
   3    1   21 1
   4    1   22 1
   5    2    8 ar
   6    2    3 ar
   7    3    4 ar
   8    3   23 1
   9    4    5 ar
  10    4   24 1
  11    5    6 ar
  12    5   25 1
  13    6    7 1
  14    6    8 ar
  15    7   26 1
  16    7   27 1
  17    7   28 1
  18    8    9 1
  19    9   10 am
  20    9   29 1
  21   10   11 2
  22   10   12 1
  23   12   13 1
  24   12   18 1
  25   12   14 1
  26   14   15 1
  27   14   30 1
  28   14   31 1
  29   15   16 1
  30   15   32 1
  31   15   33 1
  32   16   17 1
  33   16   34 1
  34   16   35 1
  35   17   18 1
  36   17   36 1
  37   17   37 1
  38   18   19 1
  39   19   38 1
  40   19   39 1
  41   19   40 1

@<TRIPOS>MOLECULE
ZINC000000000456
  41   42    0    0    0
SMALL
USER_CHARGES
NO_NAME
@<TRIPOS>ATOM
    1 C1       -2.0444     0.6287     0.7480 C.3    1 <0>      -0.1100
    2 C2       -1.0315    -0.4179     0.3610 C.ar   1 <0>      -0.0600
    3 C3       -1.1640    -1.1003    -0.8324 C.ar   1 <0>      -0.1200
    4 C4       -0.2352    -2.0611    -1.1880 C.ar   1 <0>      -0.0900
    5 C5        0.8290    -2.3416    -0.3508 C.ar   1 <0>      -0.1200
    6 C6        0.9674    -1.6625     0.8438 C.ar   1 <0>      -0.0700
    7 C7        2.1277    -1.9686     1.7555 C.3    1 <0>      -0.1200
    8 C8        0.0393    -0.6933     1.2014 C.ar   1 <0>       0.1000
    9 N9        0.1769    -0.0031     2.4108 N.am   1 <0>      -0.6400
   10 C10       0.4210     1.3223     2.4063 C.2    1 <0>       0.5100
   11 O11       0.4609     1.9281     1.3562 O.2    1 <0>      -0.5100
   12 C12       0.6445     2.0518     3.7059 C.3    1 <0>       0.0100
   13 H13      -0.2541     1.9842     4.3191 H      1 <0>       0.1600
   14 C14       1.8193     1.4154     4.4518 C.3    1 <0>      -0.1400
   15 C15       3.0792     1.5130     3.5868 C.3    1 <0>      -0.1400
   16 C16       3.3378     2.9828     3.2430 C.3    1 <0>      -0.1400
   17 C17       2.1068     3.5611     2.5419 C.3    1 <0>      -0.0400
   18 N18       0.9428     3.4622     3.4296 N.4    1 <0>      -0.3600
   19 H19       1.1407     3.9391     4.2965 H      1 <0>       0.4300
   20 C20      -0.2189     4.0868     2.7830 C.3    1 <0>      -0.0700
   21 H21      -1.7857     1.5766     0.2762 H      1 <0>       0.0800
   22 H22      -3.0346     0.3161     0.4165 H      1 <0>       0.0700
   23 H23      -2.0455     0.7502     1.8312 H      1 <0>       0.0500
   24 H24      -1.9940    -0.8834    -1.4885 H      1 <0>       0.1300
   25 H25      -0.3414    -2.5938    -2.1215 H      1 <0>       0.1300
   26 H26       1.5524    -3.0929    -0.6312 H      1 <0>       0.1300
   27 H27       2.9690    -1.3238     1.5017 H      1 <0>       0.0700
   28 H28       1.8334    -1.7916     2.7900 H      1 <0>       0.0600
   29 H29       2.4198    -3.0117     1.6341 H      1 <0>       0.0800
   30 H30       0.0965    -0.4786     3.2524 H      1 <0>       0.4100
   31 H31       1.9817     1.9421     5.3922 H      1 <0>       0.1100
   32 H32       1.5972     0.3676     4.6544 H      1 <0>       0.1100
   33 H33       3.9308     1.1121     4.1366 H      1 <0>       0.1000
   34 H34       2.9359     0.9436     2.6685 H      1 <0>       0.0800
   35 H35       3.5317     3.5420     4.1583 H      1 <0>       0.0900
   36 H36       4.2011     3.0554     2.5815 H      1 <0>       0.1100
   37 H37       2.2876     4.6074     2.2955 H      1 <0>       0.1300
   38 H38       1.9139     3.0014     1.6267 H      1 <0>       0.1600
   39 H39      -0.4320     3.5740     1.8450 H      1 <0>       0.1400
   40 H40      -1.0843     4.0139     3.4417 H      1 <0>       0.1200
   41 H41      -0.0025     5.1361     2.5823 H      1 <0>       0.1300
@<TRIPOS>BOND
   1    1    2 1
   2    1   21 1
   3    1   22 1
   4    1   23 1
   5    2    8 ar
   6    2    3 ar
   7    3    4 ar
   8    3   24 1
   9    4    5 ar
  10    4   25 1
  11    5    6 ar
  12    5   26 1
  13    6    7 1
  14    6    8 ar
  15    7   27 1
  16    7   28 1
  17    7   29 1
  18    8    9 1
  19    9   10 am
  20    9   30 1
  21   10   11 2
  22   10   12 1
  23   12   13 1
  24   12   18 1
  25   12   14 1
  26   14   15 1
  27   14   31 1
  28   14   32 1
  29   15   16 1
  30   15   33 1
  31   15   34 1
  32   16   17 1
  33   16   35 1
  34   16   36 1
  35   17   18 1
  36   17   37 1
  37   17   38 1
  38   18   19 1
  39   18   20 1
  40   20   39 1
  41   20   40 1
  42   20   41 1

@<TRIPOS>MOLECULE
ZINC000000000456
  41   42    0    0    0
SMALL
USER_CHARGES
NO_NAME
@<TRIPOS>ATOM
    1 C1       -1.9415    -2.5571     1.7383 C.3    1 <0>      -0.1100
    2 C2       -0.8231    -2.2146     0.7880 C.ar   1 <0>      -0.0800
    3 C3       -0.7732    -2.8017    -0.4611 C.ar   1 <0>      -0.1100
    4 C4        0.2530    -2.4884    -1.3335 C.ar   1 <0>      -0.1000
    5 C5        1.2318    -1.5863    -0.9587 C.ar   1 <0>      -0.1100
    6 C6        1.1873    -0.9954     0.2888 C.ar   1 <0>      -0.0600
    7 C7        2.2542    -0.0121     0.6962 C.3    1 <0>      -0.1100
    8 C8        0.1552    -1.3040     1.1652 C.ar   1 <0>       0.1000
    9 N9        0.1069    -0.7067     2.4296 N.am   1 <0>      -0.6400
   10 C10       0.1406     0.6359     2.5424 C.2    1 <0>       0.5000
   11 O11       0.3135     1.3231     1.5580 O.2    1 <0>      -0.5000
   12 C12      -0.0364     1.2834     3.8916 C.3    1 <0>       0.0100
   13 H13      -0.6786     0.6588     4.5125 H      1 <0>       0.1600
   14 C14       1.3287     1.4385     4.5654 C.3    1 <0>      -0.1400
   15 C15       1.1437     2.0964     5.9358 C.3    1 <0>      -0.1300
   16 C16       0.4303     3.4393     5.7543 C.3    1 <0>      -0.1500
   17 C17      -0.9016     3.2101     5.0365 C.3    1 <0>      -0.0100
   18 N18      -0.6548     2.6039     3.7226 N.4    1 <0>      -0.3700
   19 H19      -0.0376     3.1982     3.1897 H      1 <0>       0.4300
   20 C20      -1.9287     2.4557     3.0063 C.3    1 <0>      -0.0600
   21 H21      -2.7369    -1.8177     1.6449 H      1 <0>       0.0700
   22 H22      -2.3337    -3.5450     1.4969 H      1 <0>       0.0800
   23 H23      -1.5629    -2.5562     2.7604 H      1 <0>       0.0600
   24 H24      -1.5362    -3.5066    -0.7567 H      1 <0>       0.1300
   25 H25       0.2902    -2.9494    -2.3094 H      1 <0>       0.1300
   26 H26       2.0321    -1.3439    -1.6422 H      1 <0>       0.1300
   27 H27       1.9984     0.9783     0.3196 H      1 <0>       0.0900
   28 H28       2.3232     0.0193     1.7835 H      1 <0>       0.0500
   29 H29       3.2125    -0.3227     0.2801 H      1 <0>       0.0700
   30 H30       0.0491    -1.2589     3.2250 H      1 <0>       0.4100
   31 H31       1.7859     0.4570     4.6916 H      1 <0>       0.1200
   32 H32       1.9717     2.0633     3.9455 H      1 <0>       0.1000
   33 H33       0.5430     1.4478     6.5734 H      1 <0>       0.0900
   34 H34       2.1181     2.2606     6.3958 H      1 <0>       0.1000
   35 H35       0.2452     3.8880     6.7302 H      1 <0>       0.1200
   36 H36       1.0546     4.1056     5.1590 H      1 <0>       0.0900
   37 H37      -1.5252     2.5439     5.6326 H      1 <0>       0.1300
   38 H38      -1.4122     4.1642     4.9058 H      1 <0>       0.1400
   39 H39      -2.3628     3.4398     2.8297 H      1 <0>       0.1300
   40 H40      -1.7532     1.9594     2.0518 H      1 <0>       0.1300
   41 H41      -2.6153     1.8580     3.6058 H      1 <0>       0.1200
@<TRIPOS>BOND
   1    1    2 1
   2    1   21 1
   3    1   22 1
   4    1   23 1
   5    2    8 ar
   6    2    3 ar
   7    3    4 ar
   8    3   24 1
   9    4    5 ar
  10    4   25 1
  11    5    6 ar
  12    5   26 1
  13    6    7 1
  14    6    8 ar
  15    7   27 1
  16    7   28 1
  17    7   29 1
  18    8    9 1
  19    9   10 am
  20    9   30 1
  21   10   11 2
  22   10   12 1
  23   12   13 1
  24   12   18 1
  25   12   14 1
  26   14   15 1
  27   14   31 1
  28   14   32 1
  29   15   16 1
  30   15   33 1
  31   15   34 1
  32   16   17 1
  33   16   35 1
  34   16   36 1
  35   17   18 1
  36   17   37 1
  37   17   38 1
  38   18   19 1
  39   18   20 1
  40   20   39 1
  41   20   40 1
  42   20   41 1
