@<TRIPOS>MOLECULE
ZINC000018203737
23    24    1     0     0
SMALL
USER_CHARGES
@<TRIPOS>ATOM
1      C1     -0.0184    1.5028    0.0103 C.3      1 ZINC000018203737   -0.1000
2      C2      0.0021   -0.0041    0.0020 C.2      1 ZINC000018203737    0.2000
3      C3      0.0082   -0.7864   -1.0963 C.2      1 ZINC000018203737   -0.3400
4      C4      0.0282   -2.1361   -0.6739 C.2      1 ZINC000018203737    0.5300
5      O5      0.0392   -3.1158   -1.3972 O.2      1 ZINC000018203737   -0.5300
6      N6      0.0339   -2.1418    0.6748 N.am     1 ZINC000018203737   -0.3600
7      C7      0.0526   -3.2743    1.4951 C.ar     1 ZINC000018203737    0.1600
8      C8      0.0512   -3.1329    2.8768 C.ar     1 ZINC000018203737   -0.1600
9      C9      0.0698   -4.2533    3.6841 C.ar     1 ZINC000018203737   -0.0900
10     C10     0.0898   -5.5148    3.1182 C.ar     1 ZINC000018203737   -0.1400
11     C11     0.0918   -5.6591    1.7429 C.ar     1 ZINC000018203737   -0.0900
12     C12     0.0670   -4.5429    0.9299 C.ar     1 ZINC000018203737   -0.1400
13     N13     0.0235   -0.8086    1.1059 N.pl3    1 ZINC000018203737   -0.5000
14     H14     1.0042    1.8801    0.0026 H        1 ZINC000018203737    0.0900
15     H15    -0.5455    1.8639   -0.8728 H        1 ZINC000018203737    0.1000
16     H16    -0.5286    1.8543    0.9071 H        1 ZINC000018203737    0.0800
17     H17    -0.0007   -0.4423   -2.1200 H        1 ZINC000018203737    0.1700
18     H18     0.0359   -2.1478    3.3194 H        1 ZINC000018203737    0.1200
19     H19     0.0690   -4.1440    4.7585 H        1 ZINC000018203737    0.1300
20     H20     0.1043   -6.3894    3.7517 H        1 ZINC000018203737    0.1300
21     H21     0.1078   -6.6458    1.3040 H        1 ZINC000018203737    0.1300
22     H22     0.0686   -4.6562   -0.1441 H        1 ZINC000018203737    0.1600
23     H23     0.0246   -0.5089    2.0284 H        1 ZINC000018203737    0.4400
@<TRIPOS>BOND
1     1     2     1
2     1     14    1
3     1     15    1
4     1     16    1
5     2     13    1
6     2     3     2
7     3     4     1
8     3     17    1
9     4     5     2
10    4     6     am
11    6     7     1
12    6     13    1
13    7     12    ar
14    7     8     ar
15    8     9     ar
16    8     18    1
17    9     10    ar
18    9     19    1
19    10    11    ar
20    10    20    1
21    11    12    ar
22    11    21    1
23    12    22    1
24    13    23    1
@<TRIPOS>SUBSTRUCTURE
1   ZINC000018203737 1     RESIDUE    1   A     ZIN   1

@<TRIPOS>MOLECULE
ZINC000018203737
22    23    1     0     0
SMALL
USER_CHARGES
@<TRIPOS>ATOM
1      C1     -0.0184    1.5028    0.0103 C.3      1 ZINC000018203737   -0.0600
2      C2      0.0021   -0.0041    0.0020 C.2      1 ZINC000018203737    0.1100
3      C3     -1.0811   -0.8072    0.0027 C.2      1 ZINC000018203737   -0.4800
4      C4     -0.6331   -2.1487   -0.0067 C.2      1 ZINC000018203737    0.4800
5      O5     -1.3376   -3.1421   -0.0094 O.2      1 ZINC000018203737   -0.6300
6      N6      0.7154   -2.1288   -0.0128 N.am     1 ZINC000018203737   -0.4000
7      C7      1.5572   -3.2455   -0.0228 C.ar     1 ZINC000018203737    0.2200
8      C8      1.0163   -4.5247   -0.0330 C.ar     1 ZINC000018203737   -0.1700
9      C9      1.8504   -5.6254   -0.0427 C.ar     1 ZINC000018203737   -0.1000
10     C10     3.2227   -5.4550   -0.0424 C.ar     1 ZINC000018203737   -0.1800
11     C11     3.7644   -4.1827   -0.0318 C.ar     1 ZINC000018203737   -0.1000
12     C12     2.9359   -3.0778   -0.0282 C.ar     1 ZINC000018203737   -0.1600
13     N13     1.1211   -0.7876   -0.0134 N.pl3    1 ZINC000018203737   -0.4300
14     H14     1.0042    1.8801    0.0026 H        1 ZINC000018203737    0.0600
15     H15    -0.5455    1.8639   -0.8728 H        1 ZINC000018203737    0.0600
16     H16    -0.5286    1.8543    0.9071 H        1 ZINC000018203737    0.0600
17     H17    -2.1112   -0.4827    0.0092 H        1 ZINC000018203737    0.1100
18     H18    -0.0554   -4.6585   -0.0329 H        1 ZINC000018203737    0.1500
19     H19     1.4304   -6.6204   -0.0503 H        1 ZINC000018203737    0.1200
20     H20     3.8727   -6.3174   -0.0500 H        1 ZINC000018203737    0.1100
21     H21     4.8366   -4.0530   -0.0312 H        1 ZINC000018203737    0.1100
22     H22     3.3597   -2.0844   -0.0199 H        1 ZINC000018203737    0.1300
@<TRIPOS>BOND
1     1     2     1
2     1     14    1
3     1     15    1
4     1     16    1
5     2     13    1
6     2     3     2
7     3     4     1
8     3     17    1
9     4     5     2
10    4     6     am
11    6     7     1
12    6     13    1
13    7     12    ar
14    7     8     ar
15    8     9     ar
16    8     18    1
17    9     10    ar
18    9     19    1
19    10    11    ar
20    10    20    1
21    11    12    ar
22    11    21    1
23    12    22    1
@<TRIPOS>SUBSTRUCTURE
1   ZINC000018203737 1     RESIDUE    1   A     ZIN   1
