@<TRIPOS>MOLECULE
ZINC000000000850
  28   29    0    0    0
SMALL
USER_CHARGES
NO_NAME
@<TRIPOS>ATOM
    1 C1       -0.0302     1.4674     0.0966 C.3    1 <0>      -0.1700
    2 C2        0.0343    -0.0580    -0.0014 C.3    1 <0>       0.2600
    3 H3        0.5328    -0.4581     0.8815 H      1 <0>       0.1200
    4 C4       -1.3632    -0.6156    -0.0852 C.2    1 <0>      -0.1900
    5 C5       -1.9855    -1.2130     0.9116 C.2    1 <0>      -0.1100
    6 C6       -3.3303    -1.6734     0.6055 C.ar   1 <0>      -0.0800
    7 C7       -4.2576    -2.3411     1.4337 C.ar   1 <0>      -0.0800
    8 C8       -5.4823    -2.6929     0.9546 C.ar   1 <0>      -0.1200
    9 C9       -5.8391    -2.4012    -0.3547 C.ar   1 <0>      -0.1000
   10 C10      -4.9554    -1.7510    -1.1837 C.ar   1 <0>      -0.0900
   11 C11      -3.6924    -1.3804    -0.7124 C.ar   1 <0>      -0.1800
   12 S12      -2.3704    -0.5456    -1.5183 S.3    1 <0>       0.1900
   13 N13       0.7848    -0.4390    -1.2006 N.am   1 <0>      -0.4900
   14 O14       1.8739    -1.3381    -1.0984 O.3    1 <0>      -0.3200
   15 C15       0.4385     0.0664    -2.4011 C.2    1 <0>       0.7000
   16 N16       1.1759    -0.2221    -3.4917 N.am   1 <0>      -0.8600
   17 O17      -0.5390     0.7825    -2.5002 O.2    1 <0>      -0.5500
   18 H18       0.9806     1.8707     0.1572 H      1 <0>       0.0700
   19 H19      -0.5287     1.8675    -0.7863 H      1 <0>       0.0900
   20 H20      -0.5886     1.7509     0.9888 H      1 <0>       0.0800
   21 H21      -1.5310    -1.3502     1.8816 H      1 <0>       0.1400
   22 H22      -3.9937    -2.5750     2.4545 H      1 <0>       0.1200
   23 H23      -6.1824    -3.2039     1.5989 H      1 <0>       0.1300
   24 H24      -6.8134    -2.6861    -0.7236 H      1 <0>       0.1300
   25 H25      -5.2376    -1.5265    -2.2017 H      1 <0>       0.1200
   26 H26       2.3546    -1.4694    -1.9270 H      1 <0>       0.3800
   27 H27       1.9116    -0.8510    -3.4273 H      1 <0>       0.3900
   28 H28       0.9708     0.1991    -4.3411 H      1 <0>       0.4200
@<TRIPOS>BOND
   1    1    2 1
   2    1   18 1
   3    1   19 1
   4    1   20 1
   5    2    3 1
   6    2    4 1
   7    2   13 1
   8    4   12 1
   9    4    5 2
  10    5    6 1
  11    5   21 1
  12    6   11 ar
  13    6    7 ar
  14    7    8 ar
  15    7   22 1
  16    8    9 ar
  17    8   23 1
  18    9   10 ar
  19    9   24 1
  20   10   11 ar
  21   10   25 1
  22   11   12 1
  23   13   14 1
  24   13   15 am
  25   14   26 1
  26   15   16 am
  27   15   17 2
  28   16   27 1
  29   16   28 1

@<TRIPOS>MOLECULE
ZINC000000000850
  27   28    0    0    0
SMALL
USER_CHARGES
NO_NAME
@<TRIPOS>ATOM
    1 C1        0.0015     1.5258     0.1391 C.3    1 <0>      -0.1400
    2 C2        0.0233     0.0010     0.0154 C.3    1 <0>       0.2200
    3 H3       -0.9944    -0.3835     0.0818 H      1 <0>       0.0900
    4 C4        0.6212    -0.3867    -1.3125 C.2    1 <0>      -0.1300
    5 C5       -0.0762    -0.8274    -2.3407 C.2    1 <0>      -0.1600
    6 C6        0.7091    -1.1420    -3.5232 C.ar   1 <0>      -0.0700
    7 C7        0.2823    -1.6278    -4.7777 C.ar   1 <0>      -0.0900
    8 C8        1.1843    -1.8625    -5.7699 C.ar   1 <0>      -0.1300
    9 C9        2.5370    -1.6283    -5.5649 C.ar   1 <0>      -0.1200
   10 C10       2.9807    -1.1546    -4.3527 C.ar   1 <0>      -0.0800
   11 C11       2.0718    -0.9066    -3.3197 C.ar   1 <0>      -0.1900
   12 S12       2.3313    -0.3019    -1.6884 S.3    1 <0>       0.2000
   13 N13       0.8310    -0.5653     1.0985 N.am   1 <0>      -0.4400
   14 O14       2.1634    -0.1268     1.2918 O.3    1 <0>      -0.6800
   15 C15       0.3058    -1.5037     1.9110 C.2    1 <0>       0.6800
   16 N16       1.0108    -1.9496     2.9696 N.am   1 <0>      -0.8700
   17 O17      -0.8040    -1.9479     1.6890 O.2    1 <0>      -0.6700
   18 H18       1.0192     1.9104     0.0727 H      1 <0>       0.0700
   19 H19      -0.5995     1.9472    -0.6668 H      1 <0>       0.0500
   20 H20      -0.4309     1.8063     1.0996 H      1 <0>       0.0500
   21 H21      -1.1491    -0.9460    -2.3072 H      1 <0>       0.1400
   22 H22      -0.7670    -1.8150    -4.9515 H      1 <0>       0.1200
   23 H23       0.8443    -2.2346    -6.7251 H      1 <0>       0.1200
   24 H24       3.2430    -1.8191    -6.3596 H      1 <0>       0.1200
   25 H25       4.0343    -0.9742    -4.1979 H      1 <0>       0.1200
   26 H26       1.8962    -1.5951     3.1467 H      1 <0>       0.4000
   27 H27       0.6328    -2.6249     3.5543 H      1 <0>       0.3900
@<TRIPOS>BOND
   1    1    2 1
   2    1   18 1
   3    1   19 1
   4    1   20 1
   5    2    3 1
   6    2    4 1
   7    2   13 1
   8    4   12 1
   9    4    5 2
  10    5    6 1
  11    5   21 1
  12    6   11 ar
  13    6    7 ar
  14    7    8 ar
  15    7   22 1
  16    8    9 ar
  17    8   23 1
  18    9   10 ar
  19    9   24 1
  20   10   11 ar
  21   10   25 1
  22   11   12 1
  23   13   14 1
  24   13   15 am
  25   15   16 am
  26   15   17 2
  27   16   26 1
  28   16   27 1
