@<TRIPOS>MOLECULE
ZINC000000057206
35    35    1     0     0
SMALL
USER_CHARGES
@<TRIPOS>ATOM
1      C1     -1.2259    1.6836    0.2293 C.3      1 ZINC000000057206   -0.1800
2      C2     -0.6677    0.2611    0.1522 C.3      1 ZINC000000057206   -0.0300
3      H3     -0.1099    0.0399    1.0622 H        1 ZINC000000057206    0.1700
4      N4     -1.7761   -0.6929    0.0132 N.4      1 ZINC000000057206   -0.5000
5      H5     -2.5131   -0.4485    0.6575 H        1 ZINC000000057206    0.4300
6      H6     -2.1306   -0.6614   -0.9309 H        1 ZINC000000057206    0.4300
7      C7     -1.2953   -2.0488    0.3107 C.3      1 ZINC000000057206    0.0500
8      C8     -0.6487   -2.0678    1.6973 C.3      1 ZINC000000057206   -0.1800
9      C9     -2.4732   -3.0249    0.2839 C.3      1 ZINC000000057206   -0.1700
10     C10    -0.2633   -2.4658   -0.7390 C.3      1 ZINC000000057206   -0.1800
11     C11     0.2478    0.1446   -1.0391 C.2      1 ZINC000000057206    0.4000
12     O12    -0.1846   -0.2545   -2.0993 O.2      1 ZINC000000057206   -0.4300
13     C13     1.6668    0.5151   -0.9157 C.ar     1 ZINC000000057206   -0.1700
14     C14     2.1704    0.9702    0.3068 C.ar     1 ZINC000000057206   -0.0700
15     C15     3.5011    1.3157    0.4151 C.ar     1 ZINC000000057206   -0.1100
16     C16     4.3380    1.2135   -0.6820 C.ar     1 ZINC000000057206   -0.0600
17     C17     3.8471    0.7640   -1.8970 C.ar     1 ZINC000000057206   -0.0500
18     Cl18    4.9066    0.6399   -3.2666 Cl       1 ZINC000000057206   -0.0400
19     C19     2.5195    0.4082   -2.0191 C.ar     1 ZINC000000057206   -0.0400
20     H20    -0.4118    2.3836    0.4173 H        1 ZINC000000057206    0.1100
21     H21    -1.7108    1.9352   -0.7139 H        1 ZINC000000057206    0.0900
22     H22    -1.9526    1.7454    1.0393 H        1 ZINC000000057206    0.1000
23     H23    -1.3247   -1.6105    2.4197 H        1 ZINC000000057206    0.0900
24     H24    -0.4471   -3.0982    1.9900 H        1 ZINC000000057206    0.1100
25     H25     0.2863   -1.5083    1.6698 H        1 ZINC000000057206    0.0800
26     H26    -2.9338   -3.0113   -0.7039 H        1 ZINC000000057206    0.0800
27     H27    -2.1165   -4.0309    0.5046 H        1 ZINC000000057206    0.1100
28     H28    -3.2084   -2.7278    1.0317 H        1 ZINC000000057206    0.0800
29     H29     0.6424   -1.8724   -0.6139 H        1 ZINC000000057206    0.0700
30     H30    -0.0255   -3.5223   -0.6151 H        1 ZINC000000057206    0.1100
31     H31    -0.6717   -2.2997   -1.7359 H        1 ZINC000000057206    0.1000
32     H32     1.5186    1.0513    1.1641 H        1 ZINC000000057206    0.1400
33     H33     3.8911    1.6674    1.3589 H        1 ZINC000000057206    0.1500
34     H34     5.3791    1.4860   -0.5908 H        1 ZINC000000057206    0.1500
35     H35     2.1377    0.0579   -2.9667 H        1 ZINC000000057206    0.1500
@<TRIPOS>BOND
1     1     2     1
2     1     20    1
3     1     21    1
4     1     22    1
5     2     3     1
6     2     4     1
7     2     11    1
8     4     5     1
9     4     6     1
10    4     7     1
11    7     8     1
12    7     9     1
13    7     10    1
14    8     23    1
15    8     24    1
16    8     25    1
17    9     26    1
18    9     27    1
19    9     28    1
20    10    29    1
21    10    30    1
22    10    31    1
23    11    12    2
24    11    13    1
25    13    19    ar
26    13    14    ar
27    14    15    ar
28    14    32    1
29    15    16    ar
30    15    33    1
31    16    17    ar
32    16    34    1
33    17    18    1
34    17    19    ar
35    19    35    1
@<TRIPOS>SUBSTRUCTURE
1   ZINC000000057206 1     RESIDUE    1   A     ZIN   1

@<TRIPOS>MOLECULE
ZINC000000057206
34    34    1     0     0
SMALL
USER_CHARGES
@<TRIPOS>ATOM
1      C1      0.8410    1.4947    0.1088 C.3      1 ZINC000000057206   -0.1800
2      C2      0.0952    0.1689   -0.0552 C.3      1 ZINC000000057206    0.0400
3      H3     -0.9732    0.3624   -0.1509 H        1 ZINC000000057206    0.1000
4      N4      0.5781   -0.5188   -1.2601 N.3      1 ZINC000000057206   -0.6600
5      C5     -0.4097   -0.4374   -2.3443 C.3      1 ZINC000000057206    0.1000
6      C6     -0.7443    1.0298   -2.6204 C.3      1 ZINC000000057206   -0.1800
7      C7      0.1676   -1.0756   -3.6093 C.3      1 ZINC000000057206   -0.1400
8      C8     -1.6815   -1.1817   -1.9324 C.3      1 ZINC000000057206   -0.1400
9      C9      0.3424   -0.6991    1.1517 C.2      1 ZINC000000057206    0.4000
10     O10     1.1660   -1.5877    1.1010 O.2      1 ZINC000000057206   -0.4200
11     C11    -0.4157   -0.4683    2.3918 C.ar     1 ZINC000000057206   -0.1500
12     C12    -1.3703    0.5517    2.4523 C.ar     1 ZINC000000057206   -0.0700
13     C13    -2.0770    0.7623    3.6177 C.ar     1 ZINC000000057206   -0.1200
14     C14    -1.8435   -0.0322    4.7262 C.ar     1 ZINC000000057206   -0.0800
15     C15    -0.8992   -1.0447    4.6750 C.ar     1 ZINC000000057206   -0.0500
16     Cl16   -0.6148   -2.0352    6.0720 Cl       1 ZINC000000057206   -0.0600
17     C17    -0.1890   -1.2718    3.5139 C.ar     1 ZINC000000057206   -0.0600
18     H18     1.8974    1.2973    0.2904 H        1 ZINC000000057206    0.0700
19     H19     0.7330    2.0871   -0.7998 H        1 ZINC000000057206    0.0700
20     H20     0.4237    2.0443    0.9525 H        1 ZINC000000057206    0.0700
21     H21     1.4696   -0.1491   -1.5547 H        1 ZINC000000057206    0.3500
22     H22     0.1740    1.5788   -2.8290 H        1 ZINC000000057206    0.0600
23     H23    -1.4100    1.0950   -3.4809 H        1 ZINC000000057206    0.0600
24     H24    -1.2351    1.4609   -1.7478 H        1 ZINC000000057206    0.0600
25     H25     0.4060   -2.1209   -3.4127 H        1 ZINC000000057206    0.0700
26     H26    -0.5654   -1.0152   -4.4138 H        1 ZINC000000057206    0.0600
27     H27     1.0736   -0.5453   -3.9027 H        1 ZINC000000057206    0.0600
28     H28    -2.1500   -0.6646   -1.0951 H        1 ZINC000000057206    0.0500
29     H29    -2.3735   -1.2118   -2.7740 H        1 ZINC000000057206    0.0600
30     H30    -1.4269   -2.1989   -1.6348 H        1 ZINC000000057206    0.0700
31     H31    -1.5535    1.1734    1.5884 H        1 ZINC000000057206    0.1400
32     H32    -2.8144    1.5498    3.6654 H        1 ZINC000000057206    0.1400
33     H33    -2.3999    0.1380    5.6360 H        1 ZINC000000057206    0.1400
34     H34     0.5469   -2.0613    3.4749 H        1 ZINC000000057206    0.1400
@<TRIPOS>BOND
1     1     2     1
2     1     18    1
3     1     19    1
4     1     20    1
5     2     3     1
6     2     4     1
7     2     9     1
8     4     5     1
9     4     21    1
10    5     6     1
11    5     7     1
12    5     8     1
13    6     22    1
14    6     23    1
15    6     24    1
16    7     25    1
17    7     26    1
18    7     27    1
19    8     28    1
20    8     29    1
21    8     30    1
22    9     10    2
23    9     11    1
24    11    17    ar
25    11    12    ar
26    12    13    ar
27    12    31    1
28    13    14    ar
29    13    32    1
30    14    15    ar
31    14    33    1
32    15    16    1
33    15    17    ar
34    17    34    1
@<TRIPOS>SUBSTRUCTURE
1   ZINC000000057206 1     RESIDUE    1   A     ZIN   1
