@<TRIPOS>MOLECULE
ZINC000000001587
30    31    1     0     0
SMALL
USER_CHARGES
@<TRIPOS>ATOM
1      C1      4.8825    2.5344   -0.0305 C.3      1 ZINC000000001587   -0.0800
2      C2      3.3756    2.5223   -0.0166 C.2      1 ZINC000000001587   -0.0200
3      C3      2.5763    1.4304   -0.0149 C.2      1 ZINC000000001587   -0.1800
4      C4      1.2599    1.9698    0.0006 C.2      1 ZINC000000001587   -0.0200
5      C5     -0.0144    1.2108    0.0087 C.2      1 ZINC000000001587    0.6000
6      O6      0.0021   -0.0041    0.0020 O.2      1 ZINC000000001587   -0.5100
7      N7     -1.1906    1.8687    0.0179 N.am     1 ZINC000000001587   -0.5700
8      N8     -2.3642    1.1697    0.0196 N.3      1 ZINC000000001587   -0.4300
9      C9     -3.5183    2.0786    0.0300 C.3      1 ZINC000000001587    0.0800
10     C10    -4.7920    1.2731    0.0317 C.ar     1 ZINC000000001587   -0.0900
11     C11    -5.3849    0.9151   -1.1646 C.ar     1 ZINC000000001587   -0.0900
12     C12    -6.5506    0.1721   -1.1631 C.ar     1 ZINC000000001587   -0.1200
13     C13    -7.1291   -0.2038    0.0348 C.ar     1 ZINC000000001587   -0.1100
14     C14    -6.5391    0.1588    1.2311 C.ar     1 ZINC000000001587   -0.1200
15     C15    -5.3705    0.8972    1.2296 C.ar     1 ZINC000000001587   -0.1100
16     N16     1.4005    3.2721    0.0005 N.2      1 ZINC000000001587   -0.3400
17     O17     2.5668    3.5907   -0.0031 O.3      1 ZINC000000001587    0.1200
18     H18     5.2363    2.5427   -1.0614 H        1 ZINC000000001587    0.0900
19     H19     5.2434    3.4246    0.4846 H        1 ZINC000000001587    0.0900
20     H20     5.2577    1.6448    0.4753 H        1 ZINC000000001587    0.1000
21     H21     2.8696    0.3910   -0.0238 H        1 ZINC000000001587    0.1800
22     H22    -1.2038    2.8386    0.0232 H        1 ZINC000000001587    0.4100
23     H23    -2.4020    0.5284    0.7977 H        1 ZINC000000001587    0.3500
24     H24    -3.4816    2.7022    0.9233 H        1 ZINC000000001587    0.0500
25     H25    -3.4900    2.7119   -0.8567 H        1 ZINC000000001587    0.1000
26     H26    -4.9353    1.2125   -2.1004 H        1 ZINC000000001587    0.1300
27     H27    -7.0118   -0.1108   -2.0978 H        1 ZINC000000001587    0.1300
28     H28    -8.0423   -0.7804    0.0359 H        1 ZINC000000001587    0.1200
29     H29    -6.9912   -0.1346    2.1670 H        1 ZINC000000001587    0.1200
30     H30    -4.9097    1.1808    2.1643 H        1 ZINC000000001587    0.1200
@<TRIPOS>BOND
1     1     2     1
2     1     18    1
3     1     19    1
4     1     20    1
5     2     17    1
6     2     3     2
7     3     4     1
8     3     21    1
9     4     5     1
10    4     16    2
11    5     6     2
12    5     7     am
13    7     8     1
14    7     22    1
15    8     9     1
16    8     23    1
17    9     10    1
18    9     24    1
19    9     25    1
20    10    15    ar
21    10    11    ar
22    11    12    ar
23    11    26    1
24    12    13    ar
25    12    27    1
26    13    14    ar
27    13    28    1
28    14    15    ar
29    14    29    1
30    15    30    1
31    16    17    1
@<TRIPOS>SUBSTRUCTURE
1   ZINC000000001587 1     RESIDUE    1   A     ZIN   1
