@<TRIPOS>MOLECULE
ZINC000014263142
47    50    1     0     0
SMALL
USER_CHARGES
@<TRIPOS>ATOM
1      C1     -0.6589    7.1891    1.1876 C.3      1 ZINC000014263142    0.0300
2      O2     -0.5155    6.2333    0.1351 O.3      1 ZINC000014263142   -0.4000
3      C3      0.7552    6.2736   -0.5175 C.3      1 ZINC000014263142    0.2600
4      H4      0.9863    7.3034   -0.7898 H        1 ZINC000014263142    0.1100
5      O5      1.7523    5.7885    0.3688 O.3      1 ZINC000014263142   -0.4000
6      C6      1.5775    4.4347    0.8047 C.3      1 ZINC000014263142    0.2700
7      H7      0.6125    4.3552    1.3053 H        1 ZINC000014263142    0.1100
8      O8      2.6094    4.1608    1.7434 O.3      1 ZINC000014263142   -0.3600
9      C9      3.7610    3.4666    1.2720 C.3      1 ZINC000014263142    0.2400
10     C10     4.9721    3.8764    2.1122 C.3      1 ZINC000014263142   -0.1400
11     C11     3.4918    1.9776    1.4645 C.3      1 ZINC000014263142   -0.1600
12     C12     1.9881    1.7459    1.3825 C.3      1 ZINC000014263142   -0.1300
13     C13     1.4131    2.0271   -0.0005 C.3      1 ZINC000014263142   -0.0900
14     H14     1.9750    1.4205   -0.7107 H        1 ZINC000014263142    0.0900
15     C15    -0.0187    1.5258    0.0104 C.3      1 ZINC000014263142   -0.0800
16     H16    -0.4952    1.8593    0.9323 H        1 ZINC000014263142    0.0700
17     C17     0.0021   -0.0041    0.0020 C.3      1 ZINC000014263142   -0.1500
18     C18    -0.8565    2.0028   -1.1613 C.3      1 ZINC000014263142   -0.1200
19     C19    -0.8180    3.5374   -1.1664 C.3      1 ZINC000014263142   -0.1100
20     C20     0.6185    3.9450   -1.4599 C.3      1 ZINC000014263142   -0.0700
21     H21     0.8965    3.4183   -2.3728 H        1 ZINC000014263142    0.0800
22     C22     0.6998    5.4226   -1.7759 C.3      1 ZINC000014263142   -0.1000
23     H23     1.5948    5.6092   -2.3693 H        1 ZINC000014263142    0.1000
24     C24    -0.5291    5.8244   -2.5940 C.3      1 ZINC000014263142   -0.1500
25     C25     1.5951    3.4945   -0.3861 C.3      1 ZINC000014263142    0.0500
26     O26     2.8992    3.5838   -1.0135 O.3      1 ZINC000014263142   -0.1800
27     O27     4.0208    3.7475   -0.1014 O.3      1 ZINC000014263142   -0.2000
28     H28     0.0996    7.0076    1.9491 H        1 ZINC000014263142    0.0500
29     H29    -0.5360    8.1944    0.7847 H        1 ZINC000014263142    0.0400
30     H30    -1.6497    7.0944    1.6319 H        1 ZINC000014263142    0.0900
31     H31     5.1566    4.9434    1.9874 H        1 ZINC000014263142    0.0800
32     H32     4.7749    3.6622    3.1626 H        1 ZINC000014263142    0.0900
33     H33     5.8478    3.3157    1.7852 H        1 ZINC000014263142    0.0800
34     H34     3.9940    1.4096    0.6814 H        1 ZINC000014263142    0.0900
35     H35     3.8591    1.6615    2.4409 H        1 ZINC000014263142    0.0900
36     H36     1.4938    2.3943    2.1059 H        1 ZINC000014263142    0.0800
37     H37     1.7787    0.7089    1.6447 H        1 ZINC000014263142    0.0800
38     H38     0.5293   -0.3651    0.8851 H        1 ZINC000014263142    0.0600
39     H39    -1.0205   -0.3814    0.0098 H        1 ZINC000014263142    0.0600
40     H40     0.5123   -0.3556   -0.8948 H        1 ZINC000014263142    0.0600
41     H41    -0.4409    1.6195   -2.0933 H        1 ZINC000014263142    0.0700
42     H42    -1.8843    1.6591   -1.0451 H        1 ZINC000014263142    0.0700
43     H43    -1.1217    3.9203   -0.1921 H        1 ZINC000014263142    0.0800
44     H44    -1.4801    3.9248   -1.9408 H        1 ZINC000014263142    0.0900
45     H45    -0.4567    6.8777   -2.8651 H        1 ZINC000014263142    0.0600
46     H46    -0.5770    5.2188   -3.4991 H        1 ZINC000014263142    0.0600
47     H47    -1.4292    5.6629   -2.0008 H        1 ZINC000014263142    0.0800
@<TRIPOS>BOND
1     1     2     1
2     1     28    1
3     1     29    1
4     1     30    1
5     2     3     1
6     3     4     1
7     3     22    1
8     3     5     1
9     5     6     1
10    6     7     1
11    6     25    1
12    6     8     1
13    8     9     1
14    9     27    1
15    9     10    1
16    9     11    1
17    10    31    1
18    10    32    1
19    10    33    1
20    11    12    1
21    11    34    1
22    11    35    1
23    12    13    1
24    12    36    1
25    12    37    1
26    13    14    1
27    13    25    1
28    13    15    1
29    15    16    1
30    15    17    1
31    15    18    1
32    17    38    1
33    17    39    1
34    17    40    1
35    18    19    1
36    18    41    1
37    18    42    1
38    19    20    1
39    19    43    1
40    19    44    1
41    20    21    1
42    20    22    1
43    20    25    1
44    22    23    1
45    22    24    1
46    24    45    1
47    24    46    1
48    24    47    1
49    25    26    1
50    26    27    1
@<TRIPOS>SUBSTRUCTURE
1   ZINC000014263142 1     RESIDUE    1   A     ZIN   1
