@<TRIPOS>MOLECULE
ZINC000003782550
  18   17    0    0    0
SMALL
USER_CHARGES
NO_NAME
@<TRIPOS>ATOM
    1 N1       -0.0116     1.0048     0.0076 N.4    1 <0>      -0.6300
    2 H2        0.0021    -0.0041     0.0020 H      1 <0>       0.4400
    3 H3        0.9350     1.3541     0.0004 H      1 <0>       0.4400
    4 H4       -0.4996     1.3391    -0.8099 H      1 <0>       0.4400
    5 C5       -0.6992     1.4786     1.2162 C.3    1 <0>      -0.0600
    6 C6        0.0297     0.9794     2.4371 C.2    1 <0>       0.3400
    7 O7        1.0197     0.2991     2.3132 O.2    1 <0>      -0.4400
    8 C8       -0.4770     1.3290     3.8126 C.3    1 <0>      -0.1400
    9 C9        0.4372     0.7023     4.8674 C.3    1 <0>      -0.1800
   10 C10      -0.0695     1.0520     6.2429 C.2    1 <0>       0.4900
   11 O11      -1.0691     1.7388     6.3680 O.co2  1 <0>      -0.7000
   12 O12       0.5202     0.6481     7.2306 O.co2  1 <0>      -0.6900
   13 H13      -0.7140     2.5685     1.2222 H      1 <0>       0.1700
   14 H14      -1.7218     1.1013     1.2239 H      1 <0>       0.1700
   15 H15      -0.4819     2.4123     3.9335 H      1 <0>       0.1100
   16 H16      -1.4897     0.9451     3.9352 H      1 <0>       0.1100
   17 H17       0.4421    -0.3809     4.7465 H      1 <0>       0.0700
   18 H18       1.4499     1.0863     4.7448 H      1 <0>       0.0700
@<TRIPOS>BOND
   1    1    2 1
   2    1    3 1
   3    1    4 1
   4    1    5 1
   5    5    6 1
   6    5   13 1
   7    5   14 1
   8    6    7 2
   9    6    8 1
  10    8    9 1
  11    8   15 1
  12    8   16 1
  13    9   10 1
  14    9   17 1
  15    9   18 1
  16   10   11 ar
  17   10   12 ar

@<TRIPOS>MOLECULE
ZINC000003782550
  17   16    0    0    0
SMALL
USER_CHARGES
NO_NAME
@<TRIPOS>ATOM
    1 N1       -0.0178     1.4648     0.0101 N.3    1 <0>      -0.8400
    2 C2        0.0021    -0.0041     0.0020 C.3    1 <0>       0.0100
    3 C3       -1.4117    -0.5257     0.0127 C.2    1 <0>       0.3500
    4 O4       -2.3401     0.2465     0.0257 O.2    1 <0>      -0.4500
    5 C5       -1.6670    -2.0109     0.0072 C.3    1 <0>      -0.1400
    6 C6       -3.1749    -2.2693     0.0202 C.3    1 <0>      -0.1700
    7 C7       -3.4302    -3.7545     0.0146 C.2    1 <0>       0.4900
    8 O8       -2.4929    -4.5341     0.0015 O.co2  1 <0>      -0.7000
    9 O9       -4.5740    -4.1765     0.0233 O.co2  1 <0>      -0.7000
   10 H10       0.9191     1.8392     0.0032 H      1 <0>       0.3400
   11 H11      -0.5563     1.8234    -0.7642 H      1 <0>       0.3500
   12 H12       0.5123    -0.3556    -0.8948 H      1 <0>       0.0600
   13 H13       0.5293    -0.3651     0.8851 H      1 <0>       0.1000
   14 H14      -1.2306    -2.4512    -0.8894 H      1 <0>       0.0900
   15 H15      -1.2136    -2.4608     0.8905 H      1 <0>       0.1000
   16 H16      -3.6113    -1.8290     0.9168 H      1 <0>       0.0600
   17 H17      -3.6283    -1.8194    -0.8631 H      1 <0>       0.0600
@<TRIPOS>BOND
   1    1    2 1
   2    1   10 1
   3    1   11 1
   4    2    3 1
   5    2   12 1
   6    2   13 1
   7    3    4 2
   8    3    5 1
   9    5    6 1
  10    5   14 1
  11    5   15 1
  12    6    7 1
  13    6   16 1
  14    6   17 1
  15    7    8 ar
  16    7    9 ar
