@<TRIPOS>MOLECULE
ZINC000000020231
26    27    1     0     0
SMALL
USER_CHARGES
@<TRIPOS>ATOM
1      N1     -0.0320    1.3948   -0.0342 N.pl3    1 ZINC000000020231   -0.8500
2      C2     -0.0096   -0.0042   -0.0311 C.ar     1 ZINC000000020231    0.2800
3      C3     -0.6716   -0.7113   -1.0261 C.ar     1 ZINC000000020231   -0.1800
4      C4     -0.6492   -2.0931   -1.0235 C.ar     1 ZINC000000020231    0.0400
5      Cl5    -1.4763   -2.9770   -2.2678 Cl       1 ZINC000000020231   -0.0300
6      C6      0.0354   -2.7746   -0.0254 C.ar     1 ZINC000000020231    0.0100
7      N7      0.0586   -4.1775   -0.0228 N.pl3    1 ZINC000000020231   -0.6300
8      C8      1.1800   -4.8443   -0.4377 C.cat    1 ZINC000000020231    0.7300
9      N9      1.2231   -6.1608   -0.5645 N.pl3    1 ZINC000000020231   -0.6700
10     H10     0.4879   -6.7669   -0.3825 H        1 ZINC000000020231    0.4600
11     C11     2.5619   -6.5600   -1.0257 C.3      1 ZINC000000020231    0.0800
12     C12     3.3133   -5.2190   -1.1501 C.3      1 ZINC000000020231    0.0800
13     N13     2.3065   -4.2238   -0.7495 N.pl3    1 ZINC000000020231   -0.6700
14     C14     0.6975   -2.0671    0.9698 C.ar     1 ZINC000000020231    0.0300
15     Cl15    1.5533   -2.9186    2.2173 Cl       1 ZINC000000020231   -0.0300
16     C16     0.6794   -0.6853    0.9639 C.ar     1 ZINC000000020231   -0.1800
17     H17     0.4337    1.8888    0.6586 H        1 ZINC000000020231    0.4100
18     H18    -0.5099    1.8706   -0.7314 H        1 ZINC000000020231    0.4100
19     H19    -1.2042   -0.1814   -1.8020 H        1 ZINC000000020231    0.1600
20     H20    -0.7198   -4.6749    0.2730 H        1 ZINC000000020231    0.4400
21     H21     3.0450   -7.2040   -0.2909 H        1 ZINC000000020231    0.1200
22     H22     2.5020   -7.0577   -1.9936 H        1 ZINC000000020231    0.1200
23     H23     4.1705   -5.1954   -0.4772 H        1 ZINC000000020231    0.1200
24     H24     3.6275   -5.0491   -2.1799 H        1 ZINC000000020231    0.1200
25     H25     2.4478   -3.2648   -0.7140 H        1 ZINC000000020231    0.4500
26     H26     1.1941   -0.1352    1.7377 H        1 ZINC000000020231    0.1600
@<TRIPOS>BOND
1     1     2     1
2     1     17    1
3     1     18    1
4     2     16    ar
5     2     3     ar
6     3     4     ar
7     3     19    1
8     4     5     1
9     4     6     ar
10    6     7     1
11    6     14    ar
12    7     8     ar
13    7     20    1
14    8     13    ar
15    8     9     ar
16    9     10    1
17    9     11    1
18    11    12    1
19    11    21    1
20    11    22    1
21    12    13    1
22    12    23    1
23    12    24    1
24    13    25    1
25    14    15    1
26    14    16    ar
27    16    26    1
@<TRIPOS>SUBSTRUCTURE
1   ZINC000000020231 1     RESIDUE    1   A     ZIN   1

@<TRIPOS>MOLECULE
ZINC000000020231
25    26    1     0     0
SMALL
USER_CHARGES
@<TRIPOS>ATOM
1      N1      0.0435    1.3922    0.1742 N.pl3    1 ZINC000000020231   -0.8700
2      C2      0.0469   -0.0062    0.1249 C.ar     1 ZINC000000020231    0.2500
3      C3     -0.3333   -0.6608   -1.0394 C.ar     1 ZINC000000020231   -0.1900
4      C4     -0.3297   -2.0418   -1.0884 C.ar     1 ZINC000000020231    0.0400
5      Cl5    -0.8044   -2.8600   -2.5441 Cl       1 ZINC000000020231   -0.0500
6      C6      0.0544   -2.7753    0.0270 C.ar     1 ZINC000000020231    0.1200
7      N7      0.0586   -4.1772   -0.0228 N.pl3    1 ZINC000000020231   -0.6700
8      C8      1.1855   -4.8473   -0.4397 C.2      1 ZINC000000020231    0.6000
9      N9      2.2898   -4.2447   -0.7400 N.2      1 ZINC000000020231   -0.6200
10     C10     3.3053   -5.2255   -1.1476 C.3      1 ZINC000000020231    0.0400
11     C11     2.5816   -6.5819   -1.0331 C.3      1 ZINC000000020231    0.0900
12     N12     1.2357   -6.2087   -0.5666 N.pl3    1 ZINC000000020231   -0.7700
13     C13     0.4347   -2.1204    1.1914 C.ar     1 ZINC000000020231    0.0400
14     Cl14    0.9147   -3.0368    2.5855 Cl       1 ZINC000000020231   -0.0500
15     C15     0.4359   -0.7392    1.2384 C.ar     1 ZINC000000020231   -0.1900
16     H16     0.3129    1.8495    0.9861 H        1 ZINC000000020231    0.4000
17     H17    -0.2244    1.9043   -0.6048 H        1 ZINC000000020231    0.4000
18     H18    -0.6322   -0.0904   -1.9064 H        1 ZINC000000020231    0.1400
19     H19    -0.7329   -4.6741    0.2368 H        1 ZINC000000020231    0.4100
20     H20     3.6193   -5.0456   -2.1758 H        1 ZINC000000020231    0.0800
21     H21     4.1616   -5.1913   -0.4740 H        1 ZINC000000020231    0.0800
22     H22     2.5326   -7.0748   -2.0040 H        1 ZINC000000020231    0.0700
23     H23     3.0754   -7.2207   -0.3008 H        1 ZINC000000020231    0.0700
24     H24     0.5072   -6.8229   -0.3853 H        1 ZINC000000020231    0.4100
25     H25     0.7316   -0.2300    2.1437 H        1 ZINC000000020231    0.1400
@<TRIPOS>BOND
1     1     2     1
2     1     16    1
3     1     17    1
4     2     15    ar
5     2     3     ar
6     3     4     ar
7     3     18    1
8     4     5     1
9     4     6     ar
10    6     7     1
11    6     13    ar
12    7     8     1
13    7     19    1
14    8     12    1
15    8     9     2
16    9     10    1
17    10    11    1
18    10    20    1
19    10    21    1
20    11    12    1
21    11    22    1
22    11    23    1
23    12    24    1
24    13    14    1
25    13    15    ar
26    15    25    1
@<TRIPOS>SUBSTRUCTURE
1   ZINC000000020231 1     RESIDUE    1   A     ZIN   1
