@<TRIPOS>MOLECULE
ZINC000004228257
  32   33    0    0    0
SMALL
USER_CHARGES
NO_NAME
@<TRIPOS>ATOM
    1 C1       -0.0187     1.5258     0.0104 C.3    1 <0>      -0.1800
    2 C2        0.0021    -0.0041     0.0020 C.3    1 <0>       0.0700
    3 H3        0.5123    -0.3556    -0.8948 H      1 <0>       0.0700
    4 O4       -1.3386    -0.4987     0.0122 O.3    1 <0>      -0.5700
    5 C5        0.7421    -0.5109     1.2415 C.3    1 <0>       0.1100
    6 H6        1.7879    -0.2080     1.1895 H      1 <0>       0.1000
    7 O7        0.1431     0.0444     2.4141 O.3    1 <0>      -0.5600
    8 C8        0.6554    -2.0374     1.2986 C.3    1 <0>       0.1100
    9 H9       -0.3888    -2.3457     1.3508 H      1 <0>       0.1100
   10 C10       1.4123    -2.5552     2.5310 C.3    1 <0>       0.1200
   11 N11       2.8345    -2.2189     2.3708 N.pl3  1 <0>      -0.7300
   12 C12       3.4472    -2.4483     1.1551 C.2    1 <0>       0.3400
   13 C13       2.6977    -2.6430     0.0305 C.2    1 <0>      -0.0500
   14 N14       1.2866    -2.6171     0.1020 N.pl3  1 <0>      -0.7200
   15 C15       3.3508    -2.8701    -1.1977 C.2    1 <0>       0.5400
   16 O16       2.7011    -3.0448    -2.2194 O.2    1 <0>      -0.5300
   17 N17       4.6933    -2.8934    -1.2358 N.2    1 <0>      -0.6300
   18 C18       5.4061    -2.7071    -0.1458 C.2    1 <0>       0.6600
   19 N19       6.7748    -2.7389    -0.2256 N.pl3  1 <0>      -0.8200
   20 N20       4.8144    -2.4834     1.0591 N.pl3  1 <0>      -0.6400
   21 H21       1.0039     1.9031     0.0027 H      1 <0>       0.0600
   22 H22      -0.5459     1.8868    -0.8726 H      1 <0>       0.0600
   23 H23      -0.5289     1.8773     0.9072 H      1 <0>       0.0700
   24 H24      -1.8677    -0.2163    -0.7464 H      1 <0>       0.3800
   25 H25      -0.7898    -0.1845     2.5253 H      1 <0>       0.3800
   26 H26       1.0208    -2.0790     3.4300 H      1 <0>       0.1000
   27 H27       1.2963    -3.6363     2.6065 H      1 <0>       0.0700
   28 H28       3.3360    -1.8404     3.1099 H      1 <0>       0.4000
   29 H29       0.7470    -2.9734    -0.6210 H      1 <0>       0.4100
   30 H30       7.2073    -2.8975    -1.0792 H      1 <0>       0.4300
   31 H31       7.3104    -2.6027     0.5716 H      1 <0>       0.4100
   32 H32       5.3598    -2.3485     1.8497 H      1 <0>       0.4100
@<TRIPOS>BOND
   1    1    2 1
   2    1   21 1
   3    1   22 1
   4    1   23 1
   5    2    3 1
   6    2    4 1
   7    2    5 1
   8    4   24 1
   9    5    6 1
  10    5    7 1
  11    5    8 1
  12    7   25 1
  13    8    9 1
  14    8   14 1
  15    8   10 1
  16   10   11 1
  17   10   26 1
  18   10   27 1
  19   11   12 1
  20   11   28 1
  21   12   20 1
  22   12   13 2
  23   13   14 1
  24   13   15 1
  25   14   29 1
  26   15   16 2
  27   15   17 1
  28   17   18 2
  29   18   19 1
  30   18   20 1
  31   19   30 1
  32   19   31 1
  33   20   32 1

@<TRIPOS>MOLECULE
ZINC000004228257
  32   33    0    0    0
SMALL
USER_CHARGES
NO_NAME
@<TRIPOS>ATOM
    1 C1       -0.0187     1.5258     0.0104 C.3    1 <0>      -0.1800
    2 C2        0.0021    -0.0041     0.0020 C.3    1 <0>       0.0800
    3 H3       -1.0205    -0.3814     0.0098 H      1 <0>       0.1100
    4 O4        0.6932    -0.4774     1.1597 O.3    1 <0>      -0.5600
    5 C5        0.7182    -0.4975    -1.2568 C.3    1 <0>       0.0700
    6 H6        0.1430    -0.2121    -2.1375 H      1 <0>       0.1100
    7 O7        2.0188     0.0904    -1.3262 O.3    1 <0>      -0.5500
    8 C8        0.8493    -2.0210    -1.2049 C.3    1 <0>       0.1200
    9 H9        1.4240    -2.3114    -0.3255 H      1 <0>       0.1000
   10 C10       1.5522    -2.5248    -2.4739 C.3    1 <0>       0.1200
   11 N11       0.7061    -2.2006    -3.6314 N.pl3  1 <0>      -0.7100
   12 C12      -0.6537    -2.4610    -3.5653 C.2    1 <0>       0.4100
   13 C13      -1.2574    -2.6760    -2.3343 C.2    1 <0>      -0.1000
   14 N14      -0.4879    -2.6336    -1.1498 N.pl3  1 <0>      -0.7200
   15 C15      -2.6314    -2.9342    -2.2866 C.2    1 <0>       0.5400
   16 O16      -3.1939    -3.1265    -1.2193 O.2    1 <0>      -0.5500
   17 N17      -3.3225    -2.9657    -3.4469 N.am   1 <0>      -0.6500
   18 C18      -2.6837    -2.7504    -4.6292 C.2    1 <0>       0.6300
   19 N19      -3.4046    -2.7885    -5.7959 N.pl3  1 <0>      -0.8300
   20 N20      -1.3916    -2.5067    -4.6809 N.2    1 <0>      -0.5900
   21 H21       1.0039     1.9031     0.0027 H      1 <0>       0.0600
   22 H22      -0.5459     1.8868    -0.8726 H      1 <0>       0.0600
   23 H23      -0.5289     1.8773     0.9072 H      1 <0>       0.0600
   24 H24       1.6114    -0.1800     1.2187 H      1 <0>       0.3700
   25 H25       2.5870    -0.1217    -0.5731 H      1 <0>       0.3700
   26 H26       2.5198    -2.0337    -2.5773 H      1 <0>       0.1000
   27 H27       1.6923    -3.6040    -2.4122 H      1 <0>       0.0700
   28 H28       1.0938    -1.8097    -4.4299 H      1 <0>       0.4100
   29 H29      -0.8330    -2.9999    -0.3206 H      1 <0>       0.4100
   30 H30      -4.2762    -3.1425    -3.4374 H      1 <0>       0.4100
   31 H31      -4.3577    -2.9672    -5.7715 H      1 <0>       0.4100
   32 H32      -2.9612    -2.6367    -6.6452 H      1 <0>       0.4300
@<TRIPOS>BOND
   1    1    2 1
   2    1   21 1
   3    1   22 1
   4    1   23 1
   5    2    3 1
   6    2    4 1
   7    2    5 1
   8    4   24 1
   9    5    6 1
  10    5    7 1
  11    5    8 1
  12    7   25 1
  13    8    9 1
  14    8   14 1
  15    8   10 1
  16   10   11 1
  17   10   26 1
  18   10   27 1
  19   11   12 1
  20   11   28 1
  21   12   20 1
  22   12   13 2
  23   13   14 1
  24   13   15 1
  25   14   29 1
  26   15   16 2
  27   15   17 am
  28   17   18 1
  29   17   30 1
  30   18   19 1
  31   18   20 2
  32   19   31 1
  33   19   32 1

@<TRIPOS>MOLECULE
ZINC000004228257
  31   32    0    0    0
SMALL
USER_CHARGES
NO_NAME
@<TRIPOS>ATOM
    1 C1       -0.0187     1.5258     0.0104 C.3    1 <0>      -0.1800
    2 C2        0.0021    -0.0041     0.0020 C.3    1 <0>       0.0800
    3 H3       -1.0205    -0.3814     0.0098 H      1 <0>       0.1100
    4 O4        0.6932    -0.4774     1.1597 O.3    1 <0>      -0.5600
    5 C5        0.7182    -0.4975    -1.2568 C.3    1 <0>       0.0700
    6 H6        0.1430    -0.2121    -2.1375 H      1 <0>       0.1100
    7 O7        2.0188     0.0904    -1.3262 O.3    1 <0>      -0.5600
    8 C8        0.8493    -2.0210    -1.2049 C.3    1 <0>       0.1300
    9 H9        1.4240    -2.3114    -0.3255 H      1 <0>       0.0800
   10 C10       1.5522    -2.5248    -2.4739 C.3    1 <0>       0.1300
   11 N11       0.7061    -2.2006    -3.6314 N.pl3  1 <0>      -0.7300
   12 C12      -0.6537    -2.4610    -3.5653 C.2    1 <0>       0.3900
   13 C13      -1.2574    -2.6760    -2.3343 C.2    1 <0>      -0.1600
   14 N14      -0.4879    -2.6336    -1.1498 N.pl3  1 <0>      -0.7300
   15 C15      -2.6314    -2.9342    -2.2866 C.2    1 <0>       0.5200
   16 O16      -3.1939    -3.1265    -1.2193 O.2    1 <0>      -0.6400
   17 N17      -3.3225    -2.9657    -3.4469 N.pl3  1 <0>      -0.7100
   18 C18      -2.6837    -2.7504    -4.6292 C.2    1 <0>       0.5800
   19 N19      -3.4046    -2.7885    -5.7959 N.pl3  1 <0>      -0.8400
   20 N20      -1.3916    -2.5067    -4.6809 N.2    1 <0>      -0.6800
   21 H21       1.0039     1.9031     0.0027 H      1 <0>       0.0600
   22 H22      -0.5459     1.8868    -0.8726 H      1 <0>       0.0600
   23 H23      -0.5289     1.8773     0.9072 H      1 <0>       0.0600
   24 H24       1.6114    -0.1800     1.2187 H      1 <0>       0.3600
   25 H25       2.5870    -0.1217    -0.5731 H      1 <0>       0.3600
   26 H26       2.5198    -2.0337    -2.5773 H      1 <0>       0.0800
   27 H27       1.6923    -3.6040    -2.4122 H      1 <0>       0.0500
   28 H28       1.0938    -1.8097    -4.4299 H      1 <0>       0.3900
   29 H29      -0.8330    -2.9999    -0.3206 H      1 <0>       0.3900
   30 H30      -4.3577    -2.9672    -5.7715 H      1 <0>       0.4000
   31 H31      -2.9612    -2.6367    -6.6452 H      1 <0>       0.3900
@<TRIPOS>BOND
   1    1    2 1
   2    1   21 1
   3    1   22 1
   4    1   23 1
   5    2    3 1
   6    2    4 1
   7    2    5 1
   8    4   24 1
   9    5    6 1
  10    5    7 1
  11    5    8 1
  12    7   25 1
  13    8    9 1
  14    8   14 1
  15    8   10 1
  16   10   11 1
  17   10   26 1
  18   10   27 1
  19   11   12 1
  20   11   28 1
  21   12   20 1
  22   12   13 2
  23   13   14 1
  24   13   15 1
  25   14   29 1
  26   15   16 2
  27   15   17 1
  28   17   18 1
  29   18   19 1
  30   18   20 2
  31   19   30 1
  32   19   31 1
