@<TRIPOS>MOLECULE
ZINC000000001681
  40   41    0    0    0
SMALL
USER_CHARGES
NO_NAME
@<TRIPOS>ATOM
    1 C1       -0.0187     1.5258     0.0104 C.3    1 <0>      -0.1600
    2 C2        0.0021    -0.0041     0.0020 C.3    1 <0>       0.0600
    3 O3       -1.3601    -0.5067     0.0123 O.3    1 <0>      -0.3500
    4 C4       -1.5179    -1.8396     0.0067 C.2    1 <0>       0.4700
    5 O5       -0.5499    -2.5625    -0.0065 O.2    1 <0>      -0.5000
    6 C6       -2.9025    -2.4345     0.0167 C.3    1 <0>      -0.0100
    7 C7       -3.6354    -1.9845     1.2542 C.ar   1 <0>      -0.1100
    8 C8       -4.0880    -2.9183     2.1674 C.ar   1 <0>      -0.1100
    9 C9       -4.7603    -2.5055     3.3026 C.ar   1 <0>      -0.1200
   10 C10      -4.9795    -1.1588     3.5247 C.ar   1 <0>      -0.1000
   11 C11      -4.5261    -0.2250     2.6119 C.ar   1 <0>      -0.1100
   12 C12      -3.8501    -0.6375     1.4789 C.ar   1 <0>      -0.1000
   13 C13      -3.6664    -1.9749    -1.2285 C.3    1 <0>      -0.1300
   14 C14      -2.9584    -2.5026    -2.4782 C.3    1 <0>      -0.0100
   15 N15      -2.9192    -3.9694    -2.4401 N.4    1 <0>      -0.3800
   16 H16      -3.8590    -4.3280    -2.3607 H      1 <0>       0.4300
   17 C17      -2.3072    -4.4737    -3.6766 C.3    1 <0>      -0.0500
   18 C18      -2.1274    -4.4168    -1.2880 C.3    1 <0>      -0.0200
   19 C19      -2.8034    -3.9627     0.0075 C.3    1 <0>      -0.1300
   20 H20       1.0039     1.9031     0.0027 H      1 <0>       0.0900
   21 H21      -0.5459     1.8868    -0.8726 H      1 <0>       0.0700
   22 H22      -0.5289     1.8773     0.9072 H      1 <0>       0.0700
   23 H23       0.5123    -0.3556    -0.8948 H      1 <0>       0.0700
   24 H24       0.5293    -0.3651     0.8851 H      1 <0>       0.0800
   25 H25      -3.9168    -3.9704     1.9939 H      1 <0>       0.1300
   26 H26      -5.1146    -3.2351     4.0157 H      1 <0>       0.1300
   27 H27      -5.5054    -0.8364     4.4112 H      1 <0>       0.1300
   28 H28      -4.6977     0.8271     2.7853 H      1 <0>       0.1300
   29 H29      -3.4958     0.0921     0.7658 H      1 <0>       0.1300
   30 H30      -4.6842    -2.3636    -1.1952 H      1 <0>       0.1100
   31 H31      -3.6929    -0.8856    -1.2578 H      1 <0>       0.1300
   32 H32      -3.4996    -2.1770    -3.3666 H      1 <0>       0.1400
   33 H33      -1.9409    -2.1131    -2.5106 H      1 <0>       0.1200
   34 H34      -1.2928    -4.0847    -3.7648 H      1 <0>       0.1200
   35 H35      -2.2776    -5.5630    -3.6494 H      1 <0>       0.1300
   36 H36      -2.8971    -4.1476    -4.5333 H      1 <0>       0.1300
   37 H37      -2.0550    -5.5043    -1.2977 H      1 <0>       0.1400
   38 H38      -1.1276    -3.9865    -1.3457 H      1 <0>       0.1500
   39 H39      -2.2130    -4.2942     0.8617 H      1 <0>       0.1200
   40 H40      -3.8032    -4.3927     0.0664 H      1 <0>       0.1100
@<TRIPOS>BOND
   1    1    2 1
   2    1   20 1
   3    1   21 1
   4    1   22 1
   5    2    3 1
   6    2   23 1
   7    2   24 1
   8    3    4 1
   9    4    5 2
  10    4    6 1
  11    6   19 1
  12    6    7 1
  13    6   13 1
  14    7   12 ar
  15    7    8 ar
  16    8    9 ar
  17    8   25 1
  18    9   10 ar
  19    9   26 1
  20   10   11 ar
  21   10   27 1
  22   11   12 ar
  23   11   28 1
  24   12   29 1
  25   13   14 1
  26   13   30 1
  27   13   31 1
  28   14   15 1
  29   14   32 1
  30   14   33 1
  31   15   16 1
  32   15   17 1
  33   15   18 1
  34   17   34 1
  35   17   35 1
  36   17   36 1
  37   18   19 1
  38   18   37 1
  39   18   38 1
  40   19   39 1
  41   19   40 1

@<TRIPOS>MOLECULE
ZINC000000001681
  39   40    0    0    0
SMALL
USER_CHARGES
NO_NAME
@<TRIPOS>ATOM
    1 C1       -0.0187     1.5258     0.0104 C.3    1 <0>      -0.1500
    2 C2        0.0021    -0.0041     0.0020 C.3    1 <0>       0.0600
    3 O3        0.7043    -0.4851     1.1784 O.3    1 <0>      -0.3500
    4 C4        0.8118    -1.8153     1.3225 C.2    1 <0>       0.4800
    5 O5        0.3348    -2.5533     0.4932 O.2    1 <0>      -0.5000
    6 C6        1.5273    -2.3882     2.5187 C.3    1 <0>       0.0000
    7 C7        2.9538    -1.9026     2.5324 C.ar   1 <0>      -0.0900
    8 C8        3.9939    -2.8112     2.4710 C.ar   1 <0>      -0.1100
    9 C9        5.3024    -2.3657     2.4836 C.ar   1 <0>      -0.1200
   10 C10       5.5709    -1.0117     2.5572 C.ar   1 <0>      -0.1100
   11 C11       4.5309    -0.1031     2.6177 C.ar   1 <0>      -0.1200
   12 C12       3.2223    -0.5483     2.6007 C.ar   1 <0>      -0.1000
   13 C13       0.8204    -1.9400     3.8009 C.3    1 <0>      -0.1000
   14 C14      -0.6087    -2.4873     3.8077 C.3    1 <0>       0.0500
   15 N15      -0.5731    -3.9535     3.7340 N.3    1 <0>      -0.5400
   16 C16      -1.9206    -4.5207     3.8776 C.3    1 <0>       0.0200
   17 C17       0.0589    -4.4073     2.4886 C.3    1 <0>       0.0400
   18 C18       1.5080    -3.9174     2.4424 C.3    1 <0>      -0.1000
   19 H19       1.0039     1.9031     0.0027 H      1 <0>       0.0700
   20 H20      -0.5459     1.8868    -0.8726 H      1 <0>       0.0800
   21 H21      -0.5289     1.8773     0.9072 H      1 <0>       0.0700
   22 H22      -1.0205    -0.3814     0.0098 H      1 <0>       0.0700
   23 H23       0.5123    -0.3556    -0.8948 H      1 <0>       0.0700
   24 H24       3.7841    -3.8690     2.4135 H      1 <0>       0.1300
   25 H25       6.1150    -3.0756     2.4363 H      1 <0>       0.1200
   26 H26       6.5933    -0.6638     2.5677 H      1 <0>       0.1200
   27 H27       4.7407     0.9547     2.6755 H      1 <0>       0.1200
   28 H28       2.4098     0.1616     2.6480 H      1 <0>       0.1300
   29 H29       1.3607    -2.3223     4.6669 H      1 <0>       0.0900
   30 H30       0.7933    -0.8510     3.8398 H      1 <0>       0.0800
   31 H31      -1.1102    -2.1818     4.7260 H      1 <0>       0.0800
   32 H32      -1.1525    -2.0936     2.9489 H      1 <0>       0.0300
   33 H33      -2.5596    -4.1459     3.0781 H      1 <0>       0.0200
   34 H34      -1.8653    -5.6077     3.8193 H      1 <0>       0.0700
   35 H35      -2.3366    -4.2292     4.8420 H      1 <0>       0.0700
   36 H36       0.0424    -5.4965     2.4489 H      1 <0>       0.0800
   37 H37      -0.4880    -4.0046     1.6361 H      1 <0>       0.0600
   38 H38       1.9721    -4.2412     1.5108 H      1 <0>       0.0800
   39 H39       2.0590    -4.3308     3.2871 H      1 <0>       0.0900
@<TRIPOS>BOND
   1    1    2 1
   2    1   19 1
   3    1   20 1
   4    1   21 1
   5    2    3 1
   6    2   22 1
   7    2   23 1
   8    3    4 1
   9    4    5 2
  10    4    6 1
  11    6   18 1
  12    6    7 1
  13    6   13 1
  14    7   12 ar
  15    7    8 ar
  16    8    9 ar
  17    8   24 1
  18    9   10 ar
  19    9   25 1
  20   10   11 ar
  21   10   26 1
  22   11   12 ar
  23   11   27 1
  24   12   28 1
  25   13   14 1
  26   13   29 1
  27   13   30 1
  28   14   15 1
  29   14   31 1
  30   14   32 1
  31   15   16 1
  32   15   17 1
  33   16   33 1
  34   16   34 1
  35   16   35 1
  36   17   18 1
  37   17   36 1
  38   17   37 1
  39   18   38 1
  40   18   39 1
