@<TRIPOS>MOLECULE
ZINC000006627681
39    40    1     0     0
SMALL
USER_CHARGES
@<TRIPOS>ATOM
1      C1     -0.0173    1.4248    0.0099 C.3      1 ZINC000006627681    0.0200
2      O2      0.0021   -0.0041    0.0020 O.3      1 ZINC000006627681   -0.3000
3      C3      0.6062   -0.6075   -1.0565 C.ar     1 ZINC000006627681    0.1600
4      C4      1.1731    0.1601   -2.0626 C.ar     1 ZINC000006627681   -0.2300
5      C5      1.7874   -0.4523   -3.1388 C.ar     1 ZINC000006627681    0.0000
6      C6      2.4022    0.3858   -4.2300 C.3      1 ZINC000006627681   -0.0200
7      C7      3.8427    0.6720   -3.8923 C.ar     1 ZINC000006627681   -0.3100
8      C8      4.1981    1.8400   -3.2472 C.ar     1 ZINC000006627681    0.2200
9      N9      5.4736    2.0621   -2.9642 N.ar     1 ZINC000006627681   -0.6000
10     C10     6.4071    1.1811   -3.2915 C.ar     1 ZINC000006627681    0.6000
11     N11     7.7280    1.4499   -2.9781 N.pl3    1 ZINC000006627681   -0.8200
12     N12     6.1078    0.0490   -3.9108 N.ar     1 ZINC000006627681   -0.6300
13     C13     4.8481   -0.2408   -4.2197 C.ar     1 ZINC000006627681    0.4900
14     N14     4.5379   -1.4257   -4.8669 N.pl3    1 ZINC000006627681   -0.8400
15     C15     1.8397   -1.8314   -3.2167 C.ar     1 ZINC000006627681   -0.2300
16     C16     1.2753   -2.6062   -2.2148 C.ar     1 ZINC000006627681    0.1500
17     O17     1.3272   -3.9630   -2.2923 O.3      1 ZINC000006627681   -0.3000
18     C18     1.9789   -4.5231   -3.4341 C.3      1 ZINC000006627681    0.0200
19     C19     0.6613   -1.9944   -1.1284 C.ar     1 ZINC000006627681    0.0200
20     O20     0.1062   -2.7513   -0.1429 O.3      1 ZINC000006627681   -0.3100
21     C21     0.9504   -3.1106    0.9526 C.3      1 ZINC000006627681    0.0400
22     H22     1.0053    1.8021    0.0021 H        1 ZINC000006627681    0.0600
23     H23    -0.5445    1.7859   -0.8732 H        1 ZINC000006627681    0.0600
24     H24    -0.5275    1.7763    0.9067 H        1 ZINC000006627681    0.1000
25     H25     1.1343    1.2379   -2.0054 H        1 ZINC000006627681    0.1400
26     H26     2.3510   -0.1542   -5.1754 H        1 ZINC000006627681    0.0800
27     H27     1.8561    1.3250   -4.3180 H        1 ZINC000006627681    0.0900
28     H28     3.4448    2.5649   -2.9764 H        1 ZINC000006627681    0.1600
29     H29     7.9606    2.2751   -2.5244 H        1 ZINC000006627681    0.4200
30     H30     8.4213    0.8131   -3.2122 H        1 ZINC000006627681    0.4100
31     H31     5.2426   -2.0509   -5.0980 H        1 ZINC000006627681    0.4100
32     H32     3.6161   -1.6301   -5.0890 H        1 ZINC000006627681    0.4100
33     H33     2.3206   -2.3061   -4.0592 H        1 ZINC000006627681    0.1300
34     H34     1.4681   -4.1973   -4.3402 H        1 ZINC000006627681    0.0600
35     H35     3.0159   -4.1882   -3.4612 H        1 ZINC000006627681    0.0600
36     H36     1.9499   -5.6109   -3.3718 H        1 ZINC000006627681    0.1000
37     H37     0.3852   -3.7118    1.6648 H        1 ZINC000006627681    0.0900
38     H38     1.7989   -3.6868    0.5837 H        1 ZINC000006627681    0.0400
39     H39     1.3109   -2.2075    1.4450 H        1 ZINC000006627681    0.0400
@<TRIPOS>BOND
1     1     2     1
2     1     22    1
3     1     23    1
4     1     24    1
5     2     3     1
6     3     19    ar
7     3     4     ar
8     4     5     ar
9     4     25    1
10    5     6     1
11    5     15    ar
12    6     7     1
13    6     26    1
14    6     27    1
15    7     13    ar
16    7     8     ar
17    8     9     ar
18    8     28    1
19    9     10    ar
20    10    11    1
21    10    12    ar
22    11    29    1
23    11    30    1
24    12    13    ar
25    13    14    1
26    14    31    1
27    14    32    1
28    15    16    ar
29    15    33    1
30    16    17    1
31    16    19    ar
32    17    18    1
33    18    34    1
34    18    35    1
35    18    36    1
36    19    20    1
37    20    21    1
38    21    37    1
39    21    38    1
40    21    39    1
@<TRIPOS>SUBSTRUCTURE
1   ZINC000006627681 1     RESIDUE    1   A     ZIN   1

@<TRIPOS>MOLECULE
ZINC000006627681
40    41    1     0     0
SMALL
USER_CHARGES
@<TRIPOS>ATOM
1      C1     -0.0173    1.4248    0.0099 C.3      1 ZINC000006627681    0.0200
2      O2      0.0021   -0.0041    0.0020 O.3      1 ZINC000006627681   -0.3000
3      C3      0.6062   -0.6075   -1.0565 C.ar     1 ZINC000006627681    0.1600
4      C4      1.1731    0.1601   -2.0626 C.ar     1 ZINC000006627681   -0.2300
5      C5      1.7874   -0.4523   -3.1388 C.ar     1 ZINC000006627681   -0.0300
6      C6      2.4022    0.3858   -4.2300 C.3      1 ZINC000006627681   -0.0300
7      C7      3.8427    0.6720   -3.8923 C.ar     1 ZINC000006627681   -0.2200
8      C8      4.1981    1.8400   -3.2472 C.ar     1 ZINC000006627681    0.2100
9      N9      5.4736    2.0621   -2.9642 N.ar     1 ZINC000006627681   -0.5700
10     H10     5.7271    2.8813   -2.5109 H        1 ZINC000006627681    0.4500
11     C11     6.4071    1.1811   -3.2915 C.ar     1 ZINC000006627681    0.6600
12     N12     7.7280    1.4499   -2.9781 N.pl3    1 ZINC000006627681   -0.7900
13     N13     6.1078    0.0490   -3.9108 N.ar     1 ZINC000006627681   -0.5700
14     C14     4.8481   -0.2408   -4.2197 C.ar     1 ZINC000006627681    0.5400
15     N15     4.5379   -1.4257   -4.8669 N.pl3    1 ZINC000006627681   -0.7800
16     C16     1.8397   -1.8314   -3.2167 C.ar     1 ZINC000006627681   -0.2400
17     C17     1.2753   -2.6062   -2.2148 C.ar     1 ZINC000006627681    0.1600
18     O18     1.3272   -3.9630   -2.2923 O.3      1 ZINC000006627681   -0.3000
19     C19     1.9789   -4.5231   -3.4341 C.3      1 ZINC000006627681    0.0200
20     C20     0.6613   -1.9944   -1.1284 C.ar     1 ZINC000006627681    0.0400
21     O21     0.1062   -2.7513   -0.1429 O.3      1 ZINC000006627681   -0.3100
22     C22     0.9504   -3.1106    0.9526 C.3      1 ZINC000006627681    0.0400
23     H23     1.0053    1.8021    0.0021 H        1 ZINC000006627681    0.0500
24     H24    -0.5445    1.7859   -0.8732 H        1 ZINC000006627681    0.0600
25     H25    -0.5275    1.7763    0.9067 H        1 ZINC000006627681    0.1100
26     H26     1.1343    1.2379   -2.0054 H        1 ZINC000006627681    0.1400
27     H27     2.3510   -0.1542   -5.1754 H        1 ZINC000006627681    0.1000
28     H28     1.8561    1.3250   -4.3180 H        1 ZINC000006627681    0.1100
29     H29     3.4448    2.5649   -2.9764 H        1 ZINC000006627681    0.2100
30     H30     7.9606    2.2751   -2.5244 H        1 ZINC000006627681    0.4300
31     H31     8.4213    0.8131   -3.2122 H        1 ZINC000006627681    0.4500
32     H32     5.2426   -2.0509   -5.0980 H        1 ZINC000006627681    0.4300
33     H33     3.6161   -1.6301   -5.0890 H        1 ZINC000006627681    0.4300
34     H34     2.3206   -2.3061   -4.0592 H        1 ZINC000006627681    0.1300
35     H35     1.9499   -5.6109   -3.3718 H        1 ZINC000006627681    0.1100
36     H36     1.4681   -4.1973   -4.3402 H        1 ZINC000006627681    0.0600
37     H37     3.0159   -4.1882   -3.4612 H        1 ZINC000006627681    0.0500
38     H38     0.3852   -3.7118    1.6648 H        1 ZINC000006627681    0.1000
39     H39     1.7989   -3.6868    0.5837 H        1 ZINC000006627681    0.0500
40     H40     1.3109   -2.2075    1.4450 H        1 ZINC000006627681    0.0500
@<TRIPOS>BOND
1     1     2     1
2     1     23    1
3     1     24    1
4     1     25    1
5     2     3     1
6     3     20    ar
7     3     4     ar
8     4     5     ar
9     4     26    1
10    5     6     1
11    5     16    ar
12    6     7     1
13    6     27    1
14    6     28    1
15    7     14    ar
16    7     8     ar
17    8     9     ar
18    8     29    1
19    9     10    1
20    9     11    ar
21    11    12    1
22    11    13    ar
23    12    30    1
24    12    31    1
25    13    14    ar
26    14    15    1
27    15    32    1
28    15    33    1
29    16    17    ar
30    16    34    1
31    17    18    1
32    17    20    ar
33    18    19    1
34    19    35    1
35    19    36    1
36    19    37    1
37    20    21    1
38    21    22    1
39    22    38    1
40    22    39    1
41    22    40    1
@<TRIPOS>SUBSTRUCTURE
1   ZINC000006627681 1     RESIDUE    1   A     ZIN   1
