@<TRIPOS>MOLECULE
ZINC000000896695
  19   18    0    0    0
SMALL
NO_CHARGES
@<TRIPOS>ATOM
   1 N1            -0.0178     1.4648     0.0101 N.3     
   2 C2             0.0021    -0.0041     0.0020 C.3     
   3 C3             0.8260    -0.5095     1.1880 C.3     
   4 O4             0.8454    -1.9383     1.1802 O.3     
   5 C5            -1.4289    -0.5341     0.1123 C.3     
   6 O6            -2.0545     0.0209     1.2711 O.3     
   7 C7             0.6299    -0.4984    -1.3027 C.3     
   8 O8             1.9665    -0.0034    -1.4057 O.3     
   9 H9             0.9191     1.8392     0.0032 H       
  10 H10           -0.5563     1.8234    -0.7642 H       
  11 H11            1.8454    -0.1318     1.1095 H       
  12 H12            0.3787    -0.1573     2.1176 H       
  13 H13            1.3510    -2.3288     1.9061 H       
  14 H14           -1.9917    -0.2485    -0.7764 H       
  15 H15           -1.4085    -1.6207     0.1957 H       
  16 H16           -2.9663    -0.2723     1.4043 H       
  17 H17            0.6447    -1.5883    -1.3087 H       
  18 H18            0.0430    -0.1384    -2.1477 H       
  19 H19            2.4267    -0.2780    -2.2106 H       
@<TRIPOS>BOND
   1    1    2 1
   2    1    9 1
   3    1   10 1
   4    2    3 1
   5    2    5 1
   6    2    7 1
   7    3    4 1
   8    3   11 1
   9    3   12 1
  10    4   13 1
  11    5    6 1
  12    5   14 1
  13    5   15 1
  14    6   16 1
  15    7    8 1
  16    7   17 1
  17    7   18 1
  18    8   19 1

@<TRIPOS>MOLECULE
ZINC000000896695
  20   19    0    0    0
SMALL
NO_CHARGES
@<TRIPOS>ATOM
   1 N1            -0.0116     1.0048     0.0076 N.4     
   2 H2             0.0021    -0.0041     0.0020 H       
   3 H3             0.9350     1.3541     0.0004 H       
   4 H4            -0.4996     1.3391    -0.8099 H       
   5 C5            -0.6992     1.4786     1.2162 C.3     
   6 C6             0.0408     0.9717     2.4557 C.3     
   7 O7            -0.6281     1.4326     3.6314 O.3     
   8 C8            -0.7199     3.0084     1.2246 C.3     
   9 O9             0.6144     3.5036     1.0971 O.3     
  10 C10           -2.1346     0.9490     1.2270 C.3     
  11 O11           -2.1152    -0.4799     1.2192 O.3     
  12 H12            0.0556    -0.1182     2.4497 H       
  13 H13            1.0634     1.3490     2.4480 H       
  14 H14           -0.2128     1.1483     4.4571 H       
  15 H15           -1.3223     3.3682     0.3904 H       
  16 H16           -1.1502     3.3608     2.1620 H       
  17 H17            0.6774     4.4685     1.0950 H       
  18 H18           -2.6448     1.3005     2.1238 H       
  19 H19           -2.6618     1.3101     0.3440 H       
  20 H20           -2.9931    -0.8852     1.2254 H       
@<TRIPOS>BOND
   1    1    2 1
   2    1    3 1
   3    1    4 1
   4    1    5 1
   5    5    6 1
   6    5    8 1
   7    5   10 1
   8    6    7 1
   9    6   12 1
  10    6   13 1
  11    7   14 1
  12    8    9 1
  13    8   15 1
  14    8   16 1
  15    9   17 1
  16   10   11 1
  17   10   18 1
  18   10   19 1
  19   11   20 1
