@<TRIPOS>MOLECULE
ZINC000008855117
  31   33    0    0    0
SMALL
USER_CHARGES
NO_NAME
@<TRIPOS>ATOM
    1 O1        0.0021    -0.0041     0.0020 O.2    1 <0>      -0.5100
    2 C2       -0.0145     1.2148     0.0087 C.2    1 <0>       0.5800
    3 N3       -1.1834     1.8932     0.0292 N.am   1 <0>      -0.6400
    4 C4       -1.1897     3.2501     0.0360 C.2    1 <0>       0.3900
    5 N5       -0.0897     3.9495     0.0233 N.2    1 <0>      -0.5100
    6 C6        1.1117     3.3553     0.0032 C.2    1 <0>       0.2700
    7 C7        1.1915     1.9593     0.0012 C.2    1 <0>      -0.1000
    8 N8        2.5042     1.6313    -0.0214 N.2    1 <0>      -0.4300
    9 C9        3.2196     2.7189    -0.0331 C.2    1 <0>       0.2300
   10 N10       2.4020     3.8092    -0.0141 N.pl3  1 <0>      -0.4500
   11 C11       2.8271     5.2112    -0.0197 C.3    1 <0>       0.3100
   12 H12       2.1333     5.8191    -0.6004 H      1 <0>       0.1300
   13 O13       4.1684     5.3336    -0.5397 O.3    1 <0>      -0.3500
   14 C14       4.6927     6.5826    -0.0586 C.3    1 <0>       0.0500
   15 H15       4.5073     7.3689    -0.7903 H      1 <0>       0.1000
   16 C16       6.1958     6.4525     0.1954 C.3    1 <0>       0.0800
   17 O17       6.8731     6.2506    -1.0466 O.3    1 <0>      -0.5600
   18 C18       3.9619     6.9093     1.2582 C.3    1 <0>       0.0400
   19 H19       4.6653     6.9271     2.0906 H      1 <0>       0.0900
   20 O20       3.2798     8.1607     1.1545 O.3    1 <0>      -0.5400
   21 C21       2.9460     5.7512     1.4283 C.3    1 <0>       0.0800
   22 H22       3.3387     4.9842     2.0957 H      1 <0>       0.0900
   23 O23       1.6894     6.2405     1.9011 O.3    1 <0>      -0.5200
   24 H24      -2.0228     1.4072     0.0388 H      1 <0>       0.4300
   25 H25      -2.1374     3.7678     0.0521 H      1 <0>       0.2200
   26 H26       4.2990     2.7523    -0.0515 H      1 <0>       0.2300
   27 H27       6.5649     7.3635     0.6666 H      1 <0>       0.0700
   28 H28       6.3811     5.6029     0.8526 H      1 <0>       0.0600
   29 H29       7.8320     6.1595    -0.9614 H      1 <0>       0.3900
   30 H30       3.8632     8.9141     0.9896 H      1 <0>       0.3900
   31 H31       1.7345     6.6681     2.7672 H      1 <0>       0.3900
@<TRIPOS>BOND
   1    1    2 2
   2    2    7 1
   3    2    3 am
   4    3    4 1
   5    3   24 1
   6    4    5 2
   7    4   25 1
   8    5    6 1
   9    6   10 1
  10    6    7 2
  11    7    8 1
  12    8    9 2
  13    9   10 1
  14    9   26 1
  15   10   11 1
  16   11   12 1
  17   11   21 1
  18   11   13 1
  19   13   14 1
  20   14   15 1
  21   14   16 1
  22   14   18 1
  23   16   17 1
  24   16   27 1
  25   16   28 1
  26   17   29 1
  27   18   19 1
  28   18   20 1
  29   18   21 1
  30   20   30 1
  31   21   22 1
  32   21   23 1
  33   23   31 1

@<TRIPOS>MOLECULE
ZINC000008855117
  30   32    0    0    0
SMALL
USER_CHARGES
NO_NAME
@<TRIPOS>ATOM
    1 O1        0.0021    -0.0041     0.0020 O.2    1 <0>      -0.5900
    2 C2       -0.0145     1.2148     0.0087 C.2    1 <0>       0.5400
    3 N3       -1.1834     1.8932     0.0292 N.pl3  1 <0>      -0.6800
    4 C4       -1.1897     3.2501     0.0364 C.2    1 <0>       0.3600
    5 N5       -0.0897     3.9495     0.0238 N.2    1 <0>      -0.6200
    6 C6        1.1117     3.3553     0.0033 C.2    1 <0>       0.3000
    7 C7        1.1915     1.9593     0.0012 C.2    1 <0>      -0.1800
    8 N8        2.5042     1.6313    -0.0218 N.2    1 <0>      -0.4300
    9 C9        3.2196     2.7189    -0.0338 C.2    1 <0>       0.1700
   10 N10       2.4020     3.8092    -0.0142 N.pl3  1 <0>      -0.4700
   11 C11       2.8271     5.2112    -0.0198 C.3    1 <0>       0.3200
   12 H12       2.1330     5.8192    -0.5999 H      1 <0>       0.1100
   13 O13       4.1681     5.3337    -0.5405 O.3    1 <0>      -0.3500
   14 C14       4.6927     6.5826    -0.0595 C.3    1 <0>       0.0500
   15 H15       4.5068     7.3690    -0.7910 H      1 <0>       0.0900
   16 C16       6.1960     6.4525     0.1936 C.3    1 <0>       0.0800
   17 O17       6.8725     6.2507    -1.0488 O.3    1 <0>      -0.5600
   18 C18       3.9626     6.9091     1.2577 C.3    1 <0>       0.0400
   19 H19       4.6665     6.9267     2.0898 H      1 <0>       0.0800
   20 O20       3.2805     8.1605     1.1546 O.3    1 <0>      -0.5400
   21 C21       2.9468     5.7510     1.4282 C.3    1 <0>       0.0800
   22 H22       3.3399     4.9838     2.0953 H      1 <0>       0.0900
   23 O23       1.6905     6.2402     1.9018 O.3    1 <0>      -0.5100
   24 H24      -2.1374     3.7678     0.0529 H      1 <0>       0.1700
   25 H25       4.2989     2.7523    -0.0526 H      1 <0>       0.2000
   26 H26       6.5653     7.3634     0.6647 H      1 <0>       0.0600
   27 H27       6.3816     5.6027     0.8506 H      1 <0>       0.0600
   28 H28       7.8315     6.1596    -0.9642 H      1 <0>       0.3800
   29 H29       3.8638     8.9140     0.9895 H      1 <0>       0.3800
   30 H30       1.7361     6.6676     2.7680 H      1 <0>       0.3800
@<TRIPOS>BOND
   1    1    2 2
   2    2    7 1
   3    2    3 1
   4    3    4 1
   5    4    5 2
   6    4   24 1
   7    5    6 1
   8    6   10 1
   9    6    7 2
  10    7    8 1
  11    8    9 2
  12    9   10 1
  13    9   25 1
  14   10   11 1
  15   11   12 1
  16   11   21 1
  17   11   13 1
  18   13   14 1
  19   14   15 1
  20   14   16 1
  21   14   18 1
  22   16   17 1
  23   16   26 1
  24   16   27 1
  25   17   28 1
  26   18   19 1
  27   18   20 1
  28   18   21 1
  29   20   29 1
  30   21   22 1
  31   21   23 1
  32   23   30 1
