@<TRIPOS>MOLECULE
ZINC000000020237
40    40    1     0     0
SMALL
USER_CHARGES
@<TRIPOS>ATOM
1      C1     -1.6272    1.2495   -3.7957 C.3      1 ZINC000000020237   -0.1800
2      C2     -1.3214   -0.1715   -3.3179 C.3      1 ZINC000000020237   -0.0200
3      N3     -0.5410   -0.1128   -2.0747 N.4      1 ZINC000000020237   -0.3700
4      H4      0.2845    0.4485   -2.2220 H        1 ZINC000000020237    0.4300
5      C5     -1.3579    0.4874   -1.0116 C.3      1 ZINC000000020237   -0.0200
6      C6     -0.4941    0.7094    0.2316 C.3      1 ZINC000000020237   -0.1900
7      C7     -0.1453   -1.4714   -1.6803 C.3      1 ZINC000000020237   -0.0300
8      C8      0.8170   -2.0294   -2.6970 C.2      1 ZINC000000020237    0.4900
9      O9      1.1308   -1.3664   -3.6629 O.2      1 ZINC000000020237   -0.5000
10     N10     1.3291   -3.2653   -2.5328 N.am     1 ZINC000000020237   -0.6400
11     C11     2.2727   -3.7579   -3.4410 C.ar     1 ZINC000000020237    0.1100
12     C12     2.1182   -5.0259   -3.9858 C.ar     1 ZINC000000020237   -0.0800
13     C13     0.9333   -5.8734   -3.6001 C.3      1 ZINC000000020237   -0.1200
14     C14     3.0514   -5.5092   -4.8819 C.ar     1 ZINC000000020237   -0.1100
15     C15     4.1390   -4.7322   -5.2364 C.ar     1 ZINC000000020237   -0.1000
16     C16     4.2960   -3.4694   -4.6953 C.ar     1 ZINC000000020237   -0.1100
17     C17     3.3628   -2.9776   -3.8037 C.ar     1 ZINC000000020237   -0.0700
18     C18     3.5346   -1.6013   -3.2145 C.3      1 ZINC000000020237   -0.1200
19     H19    -2.2002    1.7744   -3.0314 H        1 ZINC000000020237    0.0800
20     H20    -0.6928    1.7804   -3.9780 H        1 ZINC000000020237    0.0800
21     H21    -2.2063    1.2059   -4.7181 H        1 ZINC000000020237    0.1100
22     H22    -2.2558   -0.7024   -3.1356 H        1 ZINC000000020237    0.1300
23     H23    -0.7484   -0.6964   -4.0822 H        1 ZINC000000020237    0.1400
24     H24    -1.7545    1.4432   -1.3539 H        1 ZINC000000020237    0.1400
25     H25    -2.1829   -0.1813   -0.7660 H        1 ZINC000000020237    0.1300
26     H26    -0.0583   -0.2391    0.5453 H        1 ZINC000000020237    0.0800
27     H27     0.3026    1.4160   -0.0011 H        1 ZINC000000020237    0.0800
28     H28    -1.1111    1.1095    1.0361 H        1 ZINC000000020237    0.1100
29     H29     0.3362   -1.4403   -0.7030 H        1 ZINC000000020237    0.1600
30     H30    -1.0294   -2.1070   -1.6298 H        1 ZINC000000020237    0.1600
31     H31     1.0435   -3.8132   -1.7851 H        1 ZINC000000020237    0.4200
32     H32     0.1373   -5.7399   -4.3327 H        1 ZINC000000020237    0.0800
33     H33     1.2300   -6.9219   -3.5728 H        1 ZINC000000020237    0.0800
34     H34     0.5756   -5.5713   -2.6158 H        1 ZINC000000020237    0.0600
35     H35     2.9318   -6.4953   -5.3060 H        1 ZINC000000020237    0.1300
36     H36     4.8675   -5.1126   -5.9371 H        1 ZINC000000020237    0.1300
37     H37     5.1468   -2.8652   -4.9736 H        1 ZINC000000020237    0.1300
38     H38     2.9280   -0.8885   -3.7732 H        1 ZINC000000020237    0.1000
39     H39     3.2168   -1.6101   -2.1719 H        1 ZINC000000020237    0.0500
40     H40     4.5833   -1.3097   -3.2722 H        1 ZINC000000020237    0.0700
@<TRIPOS>BOND
1     1     2     1
2     1     19    1
3     1     20    1
4     1     21    1
5     2     3     1
6     2     22    1
7     2     23    1
8     3     4     1
9     3     5     1
10    3     7     1
11    5     6     1
12    5     24    1
13    5     25    1
14    6     26    1
15    6     27    1
16    6     28    1
17    7     8     1
18    7     29    1
19    7     30    1
20    8     9     2
21    8     10    am
22    10    11    1
23    10    31    1
24    11    17    ar
25    11    12    ar
26    12    13    1
27    12    14    ar
28    13    32    1
29    13    33    1
30    13    34    1
31    14    15    ar
32    14    35    1
33    15    16    ar
34    15    36    1
35    16    17    ar
36    16    37    1
37    17    18    1
38    18    38    1
39    18    39    1
40    18    40    1
@<TRIPOS>SUBSTRUCTURE
1   ZINC000000020237 1     RESIDUE    1   A     ZIN   1

@<TRIPOS>MOLECULE
ZINC000000020237
39    39    1     0     0
SMALL
USER_CHARGES
@<TRIPOS>ATOM
1      C1      0.3084   -2.1506    1.1598 C.3      1 ZINC000000020237   -0.1500
2      C2      1.3724   -2.4217    2.2252 C.3      1 ZINC000000020237    0.0500
3      N3      1.9070   -1.1458    2.7192 N.3      1 ZINC000000020237   -0.5200
4      C4      2.6352   -1.3333    3.9811 C.3      1 ZINC000000020237    0.0500
5      C5      1.6570   -1.7661    5.0750 C.3      1 ZINC000000020237   -0.1500
6      C6      2.7604   -0.5061    1.7090 C.3      1 ZINC000000020237    0.0300
7      C7      2.9650    0.9429    2.0689 C.2      1 ZINC000000020237    0.5100
8      O8      2.3991    1.4142    3.0326 O.2      1 ZINC000000020237   -0.4900
9      N9      3.7769    1.7151    1.3199 N.am     1 ZINC000000020237   -0.6800
10     C10     4.0126    3.0446    1.6872 C.ar     1 ZINC000000020237    0.1300
11     C11     2.9496    3.9278    1.8235 C.ar     1 ZINC000000020237   -0.0700
12     C12     1.5401    3.4554    1.5766 C.3      1 ZINC000000020237   -0.1100
13     C13     3.1856    5.2394    2.1861 C.ar     1 ZINC000000020237   -0.1200
14     C14     4.4787    5.6736    2.4129 C.ar     1 ZINC000000020237   -0.1100
15     C15     5.5394    4.7968    2.2776 C.ar     1 ZINC000000020237   -0.1200
16     C16     5.3096    3.4823    1.9217 C.ar     1 ZINC000000020237   -0.0900
17     C17     6.4661    2.5274    1.7744 C.3      1 ZINC000000020237   -0.1100
18     H18     0.7523   -1.5895    0.3375 H        1 ZINC000000020237    0.0500
19     H19    -0.0804   -3.0976    0.7853 H        1 ZINC000000020237    0.0600
20     H20    -0.5048   -1.5716    1.5975 H        1 ZINC000000020237    0.0600
21     H21     0.9259   -2.9733    3.0526 H        1 ZINC000000020237    0.0800
22     H22     2.1803   -3.0102    1.7903 H        1 ZINC000000020237    0.0400
23     H23     3.3970   -2.1019    3.8502 H        1 ZINC000000020237    0.0300
24     H24     3.1107   -0.3957    4.2691 H        1 ZINC000000020237    0.0800
25     H25     1.1815   -2.7037    4.7871 H        1 ZINC000000020237    0.0500
26     H26     2.1973   -1.9052    6.0114 H        1 ZINC000000020237    0.0600
27     H27     0.8952   -0.9975    5.2060 H        1 ZINC000000020237    0.0700
28     H28     3.7253   -1.0119    1.6755 H        1 ZINC000000020237    0.0600
29     H29     2.2806   -0.5736    0.7326 H        1 ZINC000000020237    0.1100
30     H30     4.1979    1.3493    0.5263 H        1 ZINC000000020237    0.4100
31     H31     1.0744    3.1897    2.5256 H        1 ZINC000000020237    0.0800
32     H32     0.9678    4.2522    1.1015 H        1 ZINC000000020237    0.0600
33     H33     1.5585    2.5825    0.9240 H        1 ZINC000000020237    0.0600
34     H34     2.3594    5.9267    2.2923 H        1 ZINC000000020237    0.1300
35     H35     4.6607    6.6999    2.6960 H        1 ZINC000000020237    0.1200
36     H36     6.5483    5.1392    2.4547 H        1 ZINC000000020237    0.1300
37     H37     6.6616    2.0431    2.7311 H        1 ZINC000000020237    0.0700
38     H38     6.2206    1.7717    1.0282 H        1 ZINC000000020237    0.0600
39     H39     7.3526    3.0766    1.4573 H        1 ZINC000000020237    0.0700
@<TRIPOS>BOND
1     1     2     1
2     1     18    1
3     1     19    1
4     1     20    1
5     2     3     1
6     2     21    1
7     2     22    1
8     3     4     1
9     3     6     1
10    4     5     1
11    4     23    1
12    4     24    1
13    5     25    1
14    5     26    1
15    5     27    1
16    6     7     1
17    6     28    1
18    6     29    1
19    7     8     2
20    7     9     am
21    9     10    1
22    9     30    1
23    10    16    ar
24    10    11    ar
25    11    12    1
26    11    13    ar
27    12    31    1
28    12    32    1
29    12    33    1
30    13    14    ar
31    13    34    1
32    14    15    ar
33    14    35    1
34    15    16    ar
35    15    36    1
36    16    17    1
37    17    37    1
38    17    38    1
39    17    39    1
@<TRIPOS>SUBSTRUCTURE
1   ZINC000000020237 1     RESIDUE    1   A     ZIN   1
