@<TRIPOS>MOLECULE
ZINC000000000509
39    42    1     0     0
SMALL
USER_CHARGES
@<TRIPOS>ATOM
1      C1     -0.0178    1.4648    0.0101 C.3      1 ZINC000000000509    0.0200
2      N2      0.0021   -0.0041    0.0020 N.3      1 ZINC000000000509   -0.5400
3      C3     -1.3652   -0.5503   -0.0352 C.3      1 ZINC000000000509    0.0400
4      C4     -1.2637   -2.0648   -0.1942 C.3      1 ZINC000000000509    0.0700
5      N5     -0.5063   -2.6588    0.9248 N.3      1 ZINC000000000509   -0.4800
6      C6     -0.4528   -4.0269    0.6937 C.ar     1 ZINC000000000509    0.3100
7      N7     -0.7096   -4.4657   -0.5385 N.ar     1 ZINC000000000509   -0.5200
8      C8     -0.6488   -5.7464   -0.8432 C.ar     1 ZINC000000000509    0.1200
9      C9     -0.3127   -6.6905    0.1061 C.ar     1 ZINC000000000509   -0.1900
10     C10    -0.0507   -6.2747    1.4061 C.ar     1 ZINC000000000509   -0.0500
11     C11    -0.1403   -4.9234    1.6892 C.ar     1 ZINC000000000509   -0.1300
12     C12     0.0609   -4.4291    3.0877 C.3      1 ZINC000000000509   -0.0300
13     C13     1.2407   -3.5120    3.2060 C.ar     1 ZINC000000000509   -0.0600
14     C14     2.0817   -3.7787    4.2909 C.ar     1 ZINC000000000509   -0.1200
15     C15     3.1968   -3.0127    4.5393 C.ar     1 ZINC000000000509   -0.1200
16     C16     3.4895   -1.9547    3.6987 C.ar     1 ZINC000000000509   -0.1200
17     C17     2.6668   -1.6945    2.6290 C.ar     1 ZINC000000000509   -0.1200
18     C18     1.5353   -2.4773    2.3655 C.ar     1 ZINC000000000509   -0.0700
19     C19     0.7861   -2.0594    1.1283 C.3      1 ZINC000000000509    0.1500
20     H20     1.3988   -2.3263    0.2672 H        1 ZINC000000000509    0.0600
21     C21     0.7042   -0.5261    1.1770 C.3      1 ZINC000000000509    0.0600
22     H22     1.0047    1.8421    0.0024 H        1 ZINC000000000509    0.0700
23     H23    -0.5450    1.8259   -0.8730 H        1 ZINC000000000509    0.0700
24     H24    -0.5280    1.8163    0.9069 H        1 ZINC000000000509    0.0300
25     H25    -1.8829   -0.3112    0.8937 H        1 ZINC000000000509    0.0500
26     H26    -1.9084   -0.1267   -0.8800 H        1 ZINC000000000509    0.0900
27     H27    -2.2665   -2.4914   -0.2153 H        1 ZINC000000000509    0.0900
28     H28    -0.7573   -2.2940   -1.1319 H        1 ZINC000000000509    0.0700
29     H29    -0.8653   -6.0627   -1.8529 H        1 ZINC000000000509    0.1600
30     H30    -0.2539   -7.7362   -0.1575 H        1 ZINC000000000509    0.1400
31     H31     0.2150   -6.9864    2.1737 H        1 ZINC000000000509    0.1400
32     H32    -0.8346   -3.8950    3.4054 H        1 ZINC000000000509    0.0900
33     H33     0.2115   -5.2846    3.7461 H        1 ZINC000000000509    0.0800
34     H34     1.8509   -4.6044    4.9477 H        1 ZINC000000000509    0.1200
35     H35     3.8358   -3.2347    5.3811 H        1 ZINC000000000509    0.1300
36     H36     4.3569   -1.3379    3.8814 H        1 ZINC000000000509    0.1300
37     H37     2.8984   -0.8664    1.9755 H        1 ZINC000000000509    0.1300
38     H38     1.7129   -0.1139    1.2047 H        1 ZINC000000000509    0.0900
39     H39     0.1694   -0.2240    2.0775 H        1 ZINC000000000509    0.0500
@<TRIPOS>BOND
1     1     2     1
2     1     22    1
3     1     23    1
4     1     24    1
5     2     21    1
6     2     3     1
7     3     4     1
8     3     25    1
9     3     26    1
10    4     5     1
11    4     27    1
12    4     28    1
13    5     19    1
14    5     6     1
15    6     11    ar
16    6     7     ar
17    7     8     ar
18    8     9     ar
19    8     29    1
20    9     10    ar
21    9     30    1
22    10    11    ar
23    10    31    1
24    11    12    1
25    12    13    1
26    12    32    1
27    12    33    1
28    13    18    ar
29    13    14    ar
30    14    15    ar
31    14    34    1
32    15    16    ar
33    15    35    1
34    16    17    ar
35    16    36    1
36    17    18    ar
37    17    37    1
38    18    19    1
39    19    20    1
40    19    21    1
41    21    38    1
42    21    39    1
@<TRIPOS>SUBSTRUCTURE
1   ZINC000000000509 1     RESIDUE    1   A     ZIN   1

@<TRIPOS>MOLECULE
ZINC000000000509
40    43    1     0     0
SMALL
USER_CHARGES
@<TRIPOS>ATOM
1      C1     -0.0178    1.4648    0.0101 C.3      1 ZINC000000000509   -0.0400
2      N2      0.0021   -0.0041    0.0020 N.4      1 ZINC000000000509   -0.3900
3      H3      0.4737   -0.3337   -0.8269 H        1 ZINC000000000509    0.4300
4      C4     -1.3765   -0.5199    0.0277 C.3      1 ZINC000000000509   -0.0100
5      C5     -1.3169   -2.0408   -0.0851 C.3      1 ZINC000000000509    0.0400
6      N6     -0.5481   -2.6170    1.0353 N.3      1 ZINC000000000509   -0.4800
7      C7     -0.5192   -3.9916    0.8455 C.ar     1 ZINC000000000509    0.2900
8      N8     -0.8026   -4.4653   -0.3677 N.ar     1 ZINC000000000509   -0.5200
9      C9     -0.7655   -5.7560   -0.6320 C.ar     1 ZINC000000000509    0.1200
10     C10    -0.4281   -6.6743    0.3417 C.ar     1 ZINC000000000509   -0.1700
11     C11    -0.1389   -6.2215    1.6234 C.ar     1 ZINC000000000509   -0.0500
12     C12    -0.2037   -4.8607    1.8644 C.ar     1 ZINC000000000509   -0.1200
13     C13     0.0270   -4.3248    3.2428 C.3      1 ZINC000000000509   -0.0400
14     C14     1.2220   -3.4227    3.3147 C.ar     1 ZINC000000000509   -0.0400
15     C15     2.0754   -3.6676    4.3949 C.ar     1 ZINC000000000509   -0.1100
16     C16     3.2051   -2.9108    4.6023 C.ar     1 ZINC000000000509   -0.1000
17     C17     3.5005   -1.8847    3.7242 C.ar     1 ZINC000000000509   -0.1100
18     C18     2.6658   -1.6461    2.6587 C.ar     1 ZINC000000000509   -0.1300
19     C19     1.5190   -2.4195    2.4373 C.ar     1 ZINC000000000509   -0.0900
20     C20     0.7555   -2.0303    1.1992 C.3      1 ZINC000000000509    0.1400
21     H21     1.3499   -2.3351    0.3379 H        1 ZINC000000000509    0.0700
22     C22     0.6962   -0.4956    1.1943 C.3      1 ZINC000000000509   -0.0100
23     H23     1.0047    1.8421    0.0024 H        1 ZINC000000000509    0.1200
24     H24    -0.5450    1.8259   -0.8730 H        1 ZINC000000000509    0.1300
25     H25    -0.5280    1.8163    0.9069 H        1 ZINC000000000509    0.1200
26     H26    -1.8571   -0.2390    0.9649 H        1 ZINC000000000509    0.1400
27     H27    -1.9383   -0.1104   -0.8118 H        1 ZINC000000000509    0.1400
28     H28    -2.3303   -2.4420   -0.0691 H        1 ZINC000000000509    0.1300
29     H29    -0.8386   -2.3126   -1.0261 H        1 ZINC000000000509    0.0900
30     H30    -1.0034   -6.1010   -1.6274 H        1 ZINC000000000509    0.1600
31     H31    -0.3899   -7.7288    0.1112 H        1 ZINC000000000509    0.1500
32     H32     0.1293   -6.9123    2.4091 H        1 ZINC000000000509    0.1500
33     H33    -0.8554   -3.7671    3.5566 H        1 ZINC000000000509    0.1000
34     H34     0.1748   -5.1611    3.9261 H        1 ZINC000000000509    0.0900
35     H35     1.8424   -4.4681    5.0813 H        1 ZINC000000000509    0.1300
36     H36     3.8535   -3.1156    5.4414 H        1 ZINC000000000509    0.1300
37     H37     4.3796   -1.2755    3.8744 H        1 ZINC000000000509    0.1300
38     H38     2.8997   -0.8430    1.9756 H        1 ZINC000000000509    0.1200
39     H39     1.7109   -0.0977    1.2087 H        1 ZINC000000000509    0.1500
40     H40     0.1656   -0.1546    2.0832 H        1 ZINC000000000509    0.1400
@<TRIPOS>BOND
1     1     2     1
2     1     23    1
3     1     24    1
4     1     25    1
5     2     3     1
6     2     22    1
7     2     4     1
8     4     5     1
9     4     26    1
10    4     27    1
11    5     6     1
12    5     28    1
13    5     29    1
14    6     20    1
15    6     7     1
16    7     12    ar
17    7     8     ar
18    8     9     ar
19    9     10    ar
20    9     30    1
21    10    11    ar
22    10    31    1
23    11    12    ar
24    11    32    1
25    12    13    1
26    13    14    1
27    13    33    1
28    13    34    1
29    14    19    ar
30    14    15    ar
31    15    16    ar
32    15    35    1
33    16    17    ar
34    16    36    1
35    17    18    ar
36    17    37    1
37    18    19    ar
38    18    38    1
39    19    20    1
40    20    21    1
41    20    22    1
42    22    39    1
43    22    40    1
@<TRIPOS>SUBSTRUCTURE
1   ZINC000000000509 1     RESIDUE    1   A     ZIN   1

@<TRIPOS>MOLECULE
ZINC000000000509
40    43    1     0     0
SMALL
USER_CHARGES
@<TRIPOS>ATOM
1      C1     -0.0178    1.4648    0.0101 C.3      1 ZINC000000000509   -0.0600
2      N2      0.0021   -0.0041    0.0020 N.4      1 ZINC000000000509   -0.3900
3      H3     -0.9427   -0.3582    0.0091 H        1 ZINC000000000509    0.4300
4      C4      0.7056   -0.4861   -1.1982 C.3      1 ZINC000000000509   -0.0200
5      C5      2.0888    0.1563   -1.2265 C.3      1 ZINC000000000509    0.0600
6      N6      2.8596   -0.2101   -0.0139 N.3      1 ZINC000000000509   -0.5100
7      C7      4.1476    0.2285   -0.2353 C.ar     1 ZINC000000000509    0.3300
8      N8      4.2986    0.6981   -1.4901 N.ar     1 ZINC000000000509   -0.5400
9      C9      5.4419    1.0962   -1.9871 C.ar     1 ZINC000000000509    0.1500
10     C10     6.5824    1.0412   -1.2103 C.ar     1 ZINC000000000509   -0.1900
11     C11     6.4698    0.6041    0.0920 C.ar     1 ZINC000000000509   -0.0500
12     C12     5.2183    0.2246    0.6131 C.ar     1 ZINC000000000509   -0.1300
13     C13     5.2498   -0.0401    2.0612 C.3      1 ZINC000000000509   -0.0500
14     C14     4.0612   -0.3339    2.8806 C.ar     1 ZINC000000000509   -0.0300
15     C15     4.3690   -0.5918    4.2303 C.ar     1 ZINC000000000509   -0.1200
16     C16     3.4131   -0.9609    5.1411 C.ar     1 ZINC000000000509   -0.1000
17     C17     2.1012   -1.0974    4.7254 C.ar     1 ZINC000000000509   -0.1100
18     C18     1.7885   -0.8174    3.4182 C.ar     1 ZINC000000000509   -0.1500
19     C19     2.7582   -0.3926    2.4976 C.ar     1 ZINC000000000509   -0.0900
20     C20     2.1668    0.0424    1.1933 C.3      1 ZINC000000000509    0.1700
21     H21     2.0725    1.1266    1.2544 H        1 ZINC000000000509    0.0600
22     C22     0.7246   -0.4963    1.1771 C.3      1 ZINC000000000509   -0.0200
23     H23     1.0047    1.8421    0.0024 H        1 ZINC000000000509    0.1200
24     H24    -0.5450    1.8259   -0.8730 H        1 ZINC000000000509    0.1300
25     H25    -0.5280    1.8163    0.9069 H        1 ZINC000000000509    0.1300
26     H26     0.8043   -1.5708   -1.1563 H        1 ZINC000000000509    0.1400
27     H27     0.1489   -0.2007   -2.0908 H        1 ZINC000000000509    0.1400
28     H28     2.6261   -0.1863   -2.1109 H        1 ZINC000000000509    0.1500
29     H29     1.9808    1.2401   -1.2698 H        1 ZINC000000000509    0.0800
30     H30     5.4933    1.4660   -3.0006 H        1 ZINC000000000509    0.1700
31     H31     7.5405    1.3335   -1.6141 H        1 ZINC000000000509    0.1500
32     H32     7.3487    0.5521    0.7176 H        1 ZINC000000000509    0.1400
33     H33     5.9369   -0.8737    2.2064 H        1 ZINC000000000509    0.1000
34     H34     5.7345    0.8213    2.5207 H        1 ZINC000000000509    0.0900
35     H35     5.3933   -0.4959    4.5592 H        1 ZINC000000000509    0.1300
36     H36     3.6815   -1.1432    6.1712 H        1 ZINC000000000509    0.1400
37     H37     1.3362   -1.4189    5.4167 H        1 ZINC000000000509    0.1300
38     H38     0.7659   -0.9277    3.0887 H        1 ZINC000000000509    0.1300
39     H39     0.2089   -0.1688    2.0799 H        1 ZINC000000000509    0.1600
40     H40     0.7486   -1.5857    1.1535 H        1 ZINC000000000509    0.1400
@<TRIPOS>BOND
1     1     2     1
2     1     23    1
3     1     24    1
4     1     25    1
5     2     3     1
6     2     22    1
7     2     4     1
8     4     5     1
9     4     26    1
10    4     27    1
11    5     6     1
12    5     28    1
13    5     29    1
14    6     20    1
15    6     7     1
16    7     12    ar
17    7     8     ar
18    8     9     ar
19    9     10    ar
20    9     30    1
21    10    11    ar
22    10    31    1
23    11    12    ar
24    11    32    1
25    12    13    1
26    13    14    1
27    13    33    1
28    13    34    1
29    14    19    ar
30    14    15    ar
31    15    16    ar
32    15    35    1
33    16    17    ar
34    16    36    1
35    17    18    ar
36    17    37    1
37    18    19    ar
38    18    38    1
39    19    20    1
40    20    21    1
41    20    22    1
42    22    39    1
43    22    40    1
@<TRIPOS>SUBSTRUCTURE
1   ZINC000000000509 1     RESIDUE    1   A     ZIN   1
