@<TRIPOS>MOLECULE
ZINC000003801919
24    23    1     0     0
SMALL
USER_CHARGES
@<TRIPOS>ATOM
1      N1     -0.0116    1.0048    0.0076 N.4      1 ZINC000003801919   -0.6300
2      H2      0.0021   -0.0041    0.0020 H        1 ZINC000003801919    0.4200
3      H3      0.9350    1.3541    0.0004 H        1 ZINC000003801919    0.4100
4      H4     -0.4996    1.3391   -0.8099 H        1 ZINC000003801919    0.4400
5      C5     -0.6992    1.4786    1.2162 C.3      1 ZINC000003801919   -0.0100
6      C6     -2.1346    0.9490    1.2270 C.3      1 ZINC000003801919   -0.1900
7      C7     -2.8507    1.4424    2.4858 C.3      1 ZINC000003801919   -0.0800
8      C8     -4.2861    0.9128    2.4967 C.3      1 ZINC000003801919   -1.0400
9      O9     -4.2667   -0.5160    2.4888 O.3      1 ZINC000003801919   -0.5200
10     P10    -5.1394    1.5007    3.9966 P.3      1 ZINC000003801919    2.2200
11     O11    -4.4584    0.8783    5.2627 O.co2    1 ZINC000003801919   -1.2200
12     O12    -5.0494    3.0631    4.0701 O.co2    1 ZINC000003801919   -1.1800
13     O13    -6.6437    1.0661    3.9458 O.co2    1 ZINC000003801919   -1.1600
14     P14    -5.1678    1.5167    1.0198 P.3      1 ZINC000003801919    2.2600
15     O15    -5.1890    3.0832    1.0284 O.co2    1 ZINC000003801919   -1.1800
16     O16    -4.4345    1.0115   -0.2692 O.co2    1 ZINC000003801919   -1.2000
17     O17    -6.6376    0.9745    1.0309 O.co2    1 ZINC000003801919   -1.1700
18     H18    -0.1720    1.1175    2.0992 H        1 ZINC000003801919    0.1100
19     H19    -0.7140    2.5685    1.2222 H        1 ZINC000003801919    0.1200
20     H20    -2.6618    1.3101    0.3440 H        1 ZINC000003801919    0.1600
21     H21    -2.1198   -0.1409    1.2210 H        1 ZINC000003801919    0.0600
22     H22    -2.3235    1.0813    3.3689 H        1 ZINC000003801919    0.0200
23     H23    -2.8655    2.5323    2.4918 H        1 ZINC000003801919    0.0700
24     H24    -3.8125   -0.9074    3.2475 H        1 ZINC000003801919    0.3000
@<TRIPOS>BOND
1     1     2     1
2     1     3     1
3     1     4     1
4     1     5     1
5     5     6     1
6     5     18    1
7     5     19    1
8     6     7     1
9     6     20    1
10    6     21    1
11    7     8     1
12    7     22    1
13    7     23    1
14    8     9     1
15    8     10    1
16    8     14    1
17    9     24    1
18    10    11    ar
19    10    12    ar
20    10    13    ar
21    14    15    ar
22    14    16    ar
23    14    17    ar
@<TRIPOS>SUBSTRUCTURE
1   ZINC000003801919 1     RESIDUE    1   A     ZIN   1

@<TRIPOS>MOLECULE
ZINC000003801919
26    25    1     0     0
SMALL
USER_CHARGES
@<TRIPOS>ATOM
1      N1     -0.0116    1.0048    0.0076 N.4      1 ZINC000003801919   -0.6300
2      H2      0.0021   -0.0041    0.0020 H        1 ZINC000003801919    0.4300
3      H3      0.9350    1.3541    0.0004 H        1 ZINC000003801919    0.4200
4      H4     -0.4996    1.3391   -0.8099 H        1 ZINC000003801919    0.4400
5      C5     -0.6992    1.4786    1.2162 C.3      1 ZINC000003801919   -0.0100
6      C6     -2.1346    0.9490    1.2270 C.3      1 ZINC000003801919   -0.1900
7      C7     -2.8507    1.4424    2.4858 C.3      1 ZINC000003801919   -0.1000
8      C8     -4.2861    0.9128    2.4967 C.3      1 ZINC000003801919   -1.0400
9      O9     -4.2667   -0.5160    2.4888 O.3      1 ZINC000003801919   -0.5100
10     P10    -5.1394    1.5007    3.9966 P.3      1 ZINC000003801919    2.2300
11     O11    -6.5888    0.9660    4.0075 O.2      1 ZINC000003801919   -1.0700
12     O12    -4.3921    0.9889    5.2482 O.3      1 ZINC000003801919   -1.1000
13     O13    -5.1612    3.1106    4.0054 O.3      1 ZINC000003801919   -0.8800
14     P14    -5.1678    1.5167    1.0198 P.3      1 ZINC000003801919    2.2900
15     O15    -5.1888    3.0616    1.0283 O.2      1 ZINC000003801919   -1.0900
16     O16    -4.4446    1.0185   -0.2513 O.3      1 ZINC000003801919   -1.1000
17     O17    -6.6782    0.9595    1.0312 O.3      1 ZINC000003801919   -0.8800
18     H18    -0.1720    1.1175    2.0992 H        1 ZINC000003801919    0.1200
19     H19    -0.7140    2.5685    1.2222 H        1 ZINC000003801919    0.1300
20     H20    -2.6618    1.3101    0.3440 H        1 ZINC000003801919    0.1500
21     H21    -2.1198   -0.1409    1.2210 H        1 ZINC000003801919    0.0800
22     H22    -2.3235    1.0813    3.3689 H        1 ZINC000003801919    0.0600
23     H23    -2.8655    2.5323    2.4918 H        1 ZINC000003801919    0.0800
24     H24    -3.8125   -0.9074    3.2475 H        1 ZINC000003801919    0.3500
25     H25    -5.6009    3.4937    4.7768 H        1 ZINC000003801919    0.4100
26     H26    -7.2074    1.2418    0.2727 H        1 ZINC000003801919    0.4000
@<TRIPOS>BOND
1     1     2     1
2     1     3     1
3     1     4     1
4     1     5     1
5     5     6     1
6     5     18    1
7     5     19    1
8     6     7     1
9     6     20    1
10    6     21    1
11    7     8     1
12    7     22    1
13    7     23    1
14    8     9     1
15    8     10    1
16    8     14    1
17    9     24    1
18    10    11    2
19    10    12    1
20    10    13    1
21    13    25    1
22    14    15    2
23    14    16    1
24    14    17    1
25    17    26    1
@<TRIPOS>SUBSTRUCTURE
1   ZINC000003801919 1     RESIDUE    1   A     ZIN   1

@<TRIPOS>MOLECULE
ZINC000003801919
26    25    1     0     0
SMALL
USER_CHARGES
@<TRIPOS>ATOM
1      N1     -0.0116    1.0048    0.0076 N.4      1 ZINC000003801919   -0.6300
2      H2      0.0021   -0.0041    0.0020 H        1 ZINC000003801919    0.4300
3      H3      0.9350    1.3541    0.0004 H        1 ZINC000003801919    0.4200
4      H4     -0.4996    1.3391   -0.8099 H        1 ZINC000003801919    0.4400
5      C5     -0.6992    1.4786    1.2162 C.3      1 ZINC000003801919   -0.0100
6      C6     -2.1346    0.9490    1.2270 C.3      1 ZINC000003801919   -0.1900
7      C7     -2.8507    1.4424    2.4858 C.3      1 ZINC000003801919   -0.1200
8      C8     -4.2861    0.9128    2.4967 C.3      1 ZINC000003801919   -1.0300
9      O9     -4.2667   -0.5160    2.4888 O.3      1 ZINC000003801919   -0.4900
10     P10    -5.1394    1.5007    3.9966 P.3      1 ZINC000003801919    2.2200
11     O11    -6.5888    0.9660    4.0075 O.2      1 ZINC000003801919   -1.0500
12     O12    -4.3921    0.9889    5.2482 O.3      1 ZINC000003801919   -1.1000
13     O13    -5.1612    3.1106    4.0054 O.3      1 ZINC000003801919   -0.9000
14     P14    -5.1678    1.5167    1.0198 P.3      1 ZINC000003801919    2.2700
15     O15    -6.6173    0.9820    1.0308 O.2      1 ZINC000003801919   -1.0600
16     O16    -4.4446    1.0185   -0.2513 O.3      1 ZINC000003801919   -1.0900
17     O17    -5.1896    3.1266    1.0287 O.3      1 ZINC000003801919   -0.9000
18     H18    -0.1720    1.1175    2.0992 H        1 ZINC000003801919    0.1200
19     H19    -0.7140    2.5685    1.2222 H        1 ZINC000003801919    0.1300
20     H20    -2.6618    1.3101    0.3440 H        1 ZINC000003801919    0.1400
21     H21    -2.1198   -0.1409    1.2210 H        1 ZINC000003801919    0.0900
22     H22    -2.3235    1.0813    3.3689 H        1 ZINC000003801919    0.0700
23     H23    -2.8655    2.5323    2.4918 H        1 ZINC000003801919    0.0700
24     H24    -3.8125   -0.9074    3.2475 H        1 ZINC000003801919    0.3500
25     H25    -5.6009    3.4937    4.7768 H        1 ZINC000003801919    0.4100
26     H26    -5.6439    3.5179    0.2700 H        1 ZINC000003801919    0.4100
@<TRIPOS>BOND
1     1     2     1
2     1     3     1
3     1     4     1
4     1     5     1
5     5     6     1
6     5     18    1
7     5     19    1
8     6     7     1
9     6     20    1
10    6     21    1
11    7     8     1
12    7     22    1
13    7     23    1
14    8     9     1
15    8     10    1
16    8     14    1
17    9     24    1
18    10    11    2
19    10    12    1
20    10    13    1
21    13    25    1
22    14    15    2
23    14    16    1
24    14    17    1
25    17    26    1
@<TRIPOS>SUBSTRUCTURE
1   ZINC000003801919 1     RESIDUE    1   A     ZIN   1
