@<TRIPOS>MOLECULE
ZINC000002525885
45    46    1     0     0
SMALL
USER_CHARGES
@<TRIPOS>ATOM
1      C1     -0.0178    1.4648    0.0101 C.3      1 ZINC000002525885   -0.0500
2      N2      0.0021   -0.0041    0.0020 N.4      1 ZINC000002525885   -0.3900
3      H3      0.4744   -0.3295   -0.8281 H        1 ZINC000002525885    0.4300
4      C4      0.7126   -0.4907    1.1921 C.3      1 ZINC000002525885   -0.0500
5      C5     -1.3761   -0.5125    0.0124 C.3      1 ZINC000002525885   -0.0100
6      C6     -2.0780   -0.1101   -1.2861 C.3      1 ZINC000002525885   -0.0500
7      H7     -2.0144    0.9705   -1.4137 H        1 ZINC000002525885    0.1100
8      C8     -1.4097   -0.7937   -2.4511 C.ar     1 ZINC000002525885   -0.1400
9      C9     -1.3706   -2.1745   -2.5113 C.ar     1 ZINC000002525885   -0.0700
10     C10    -0.7586   -2.8035   -3.5781 C.ar     1 ZINC000002525885   -0.1500
11     C11    -0.1832   -2.0485   -4.5898 C.ar     1 ZINC000002525885    0.1300
12     O12     0.4191   -2.6649   -5.6406 O.3      1 ZINC000002525885   -0.5000
13     C13    -0.2241   -0.6632   -4.5273 C.ar     1 ZINC000002525885   -0.1500
14     C14    -0.8416   -0.0390   -3.4608 C.ar     1 ZINC000002525885   -0.1000
15     C15    -3.5477   -0.5306   -1.2229 C.3      1 ZINC000002525885    0.1500
16     O16    -3.6311   -1.9473   -1.0556 O.3      1 ZINC000002525885   -0.5600
17     C17    -4.2263    0.1634   -0.0401 C.3      1 ZINC000002525885   -0.1500
18     C18    -5.6960   -0.2570    0.0231 C.3      1 ZINC000002525885   -0.1200
19     C19    -6.3979    0.1454   -1.2754 C.3      1 ZINC000002525885   -0.1300
20     C20    -5.7194   -0.5486   -2.4582 C.3      1 ZINC000002525885   -0.1300
21     C21    -4.2497   -0.1281   -2.5214 C.3      1 ZINC000002525885   -0.1400
22     H22     1.0047    1.8421    0.0024 H        1 ZINC000002525885    0.1300
23     H23    -0.5450    1.8259   -0.8730 H        1 ZINC000002525885    0.1200
24     H24    -0.5280    1.8163    0.9069 H        1 ZINC000002525885    0.1200
25     H25     0.2024   -0.1392    2.0889 H        1 ZINC000002525885    0.1200
26     H26     0.7273   -1.5806    1.1861 H        1 ZINC000002525885    0.1200
27     H27     1.7352   -0.1134    1.1844 H        1 ZINC000002525885    0.1200
28     H28    -1.3618   -1.5992    0.0960 H        1 ZINC000002525885    0.1400
29     H29    -1.9129   -0.0898    0.8617 H        1 ZINC000002525885    0.1400
30     H30    -1.8187   -2.7617   -1.7234 H        1 ZINC000002525885    0.1500
31     H31    -0.7277   -3.8820   -3.6243 H        1 ZINC000002525885    0.1300
32     H32    -0.1736   -2.8459   -6.3829 H        1 ZINC000002525885    0.4000
33     H33     0.2234   -0.0733   -5.3135 H        1 ZINC000002525885    0.1400
34     H34    -0.8740    1.0394   -3.4118 H        1 ZINC000002525885    0.1300
35     H35    -4.5359   -2.2851   -1.0074 H        1 ZINC000002525885    0.3900
36     H36    -3.7262   -0.1233    0.8850 H        1 ZINC000002525885    0.0700
37     H37    -4.1627    1.2441   -0.1677 H        1 ZINC000002525885    0.0800
38     H38    -5.7596   -1.3376    0.1507 H        1 ZINC000002525885    0.0700
39     H39    -6.1794    0.2374    0.8657 H        1 ZINC000002525885    0.0700
40     H40    -7.4450   -0.1541   -1.2304 H        1 ZINC000002525885    0.0700
41     H41    -6.3343    1.2261   -1.4030 H        1 ZINC000002525885    0.0700
42     H42    -5.7830   -1.6292   -2.3306 H        1 ZINC000002525885    0.0700
43     H43    -6.2194   -0.2619   -3.3833 H        1 ZINC000002525885    0.0700
44     H44    -4.1860    0.9525   -2.6490 H        1 ZINC000002525885    0.0700
45     H45    -3.7662   -0.6225   -3.3640 H        1 ZINC000002525885    0.0800
@<TRIPOS>BOND
1     1     2     1
2     1     22    1
3     1     23    1
4     1     24    1
5     2     3     1
6     2     4     1
7     2     5     1
8     4     25    1
9     4     26    1
10    4     27    1
11    5     6     1
12    5     28    1
13    5     29    1
14    6     7     1
15    6     8     1
16    6     15    1
17    8     14    ar
18    8     9     ar
19    9     10    ar
20    9     30    1
21    10    11    ar
22    10    31    1
23    11    12    1
24    11    13    ar
25    12    32    1
26    13    14    ar
27    13    33    1
28    14    34    1
29    15    21    1
30    15    16    1
31    15    17    1
32    16    35    1
33    17    18    1
34    17    36    1
35    17    37    1
36    18    19    1
37    18    38    1
38    18    39    1
39    19    20    1
40    19    40    1
41    19    41    1
42    20    21    1
43    20    42    1
44    20    43    1
45    21    44    1
46    21    45    1
@<TRIPOS>SUBSTRUCTURE
1   ZINC000002525885 1     RESIDUE    1   A     ZIN   1

@<TRIPOS>MOLECULE
ZINC000002525885
44    45    1     0     0
SMALL
USER_CHARGES
@<TRIPOS>ATOM
1      C1     -0.0178    1.4648    0.0101 C.3      1 ZINC000002525885    0.0200
2      N2      0.0021   -0.0041    0.0020 N.3      1 ZINC000002525885   -0.5400
3      C3      0.7062   -0.5275    1.1802 C.3      1 ZINC000002525885    0.0300
4      C4     -1.3597   -0.5486   -0.0825 C.3      1 ZINC000002525885    0.0600
5      C5     -1.9710   -0.1854   -1.4372 C.3      1 ZINC000002525885   -0.0300
6      H6     -1.9251    0.8944   -1.5788 H        1 ZINC000002525885    0.0900
7      C7     -1.1993   -0.8693   -2.5361 C.ar     1 ZINC000002525885   -0.0600
8      C8     -1.1210   -2.2494   -2.5687 C.ar     1 ZINC000002525885   -0.0800
9      C9     -0.4142   -2.8787   -3.5750 C.ar     1 ZINC000002525885   -0.1500
10     C10     0.2171   -2.1249   -4.5537 C.ar     1 ZINC000002525885    0.1000
11     O11     0.9126   -2.7417   -5.5450 O.3      1 ZINC000002525885   -0.5000
12     C12     0.1367   -0.7403   -4.5191 C.ar     1 ZINC000002525885   -0.1500
13     C13    -0.5754   -0.1159   -3.5134 C.ar     1 ZINC000002525885   -0.1000
14     C14    -3.4303   -0.6435   -1.4775 C.3      1 ZINC000002525885    0.1500
15     O15    -3.4904   -2.0591   -1.2919 O.3      1 ZINC000002525885   -0.5500
16     C16    -4.2138    0.0509   -0.3618 C.3      1 ZINC000002525885   -0.1500
17     C17    -5.6730   -0.4072   -0.4021 C.3      1 ZINC000002525885   -0.1200
18     C18    -6.2844   -0.0440   -1.7568 C.3      1 ZINC000002525885   -0.1200
19     C19    -5.5008   -0.7384   -2.8725 C.3      1 ZINC000002525885   -0.1200
20     C20    -4.0416   -0.2803   -2.8322 C.3      1 ZINC000002525885   -0.1400
21     H21     1.0047    1.8421    0.0024 H        1 ZINC000002525885    0.0700
22     H22    -0.5450    1.8259   -0.8730 H        1 ZINC000002525885    0.0700
23     H23    -0.5280    1.8163    0.9069 H        1 ZINC000002525885    0.0200
24     H24     0.1617   -0.2488    2.0824 H        1 ZINC000002525885    0.0200
25     H25     0.7676   -1.6137    1.1140 H        1 ZINC000002525885    0.0700
26     H26     1.7116   -0.1084    1.2186 H        1 ZINC000002525885    0.0700
27     H27    -1.3244   -1.6331    0.0212 H        1 ZINC000002525885    0.0800
28     H28    -1.9698   -0.1268    0.7163 H        1 ZINC000002525885    0.0400
29     H29    -1.6126   -2.8358   -1.8066 H        1 ZINC000002525885    0.1400
30     H30    -0.3528   -3.9567   -3.5997 H        1 ZINC000002525885    0.1200
31     H31     0.3826   -2.9500   -6.3265 H        1 ZINC000002525885    0.3900
32     H32     0.6275   -0.1512   -5.2797 H        1 ZINC000002525885    0.1200
33     H33    -0.6386    0.9619   -3.4861 H        1 ZINC000002525885    0.1200
34     H34    -4.3875   -2.4199   -1.3061 H        1 ZINC000002525885    0.3700
35     H35    -3.7782   -0.2079    0.6034 H        1 ZINC000002525885    0.0700
36     H36    -4.1679    1.1307   -0.5033 H        1 ZINC000002525885    0.0700
37     H37    -5.7189   -1.4870   -0.2605 H        1 ZINC000002525885    0.0600
38     H38    -6.2312    0.0875    0.3928 H        1 ZINC000002525885    0.0700
39     H39    -7.3240   -0.3704   -1.7855 H        1 ZINC000002525885    0.0600
40     H40    -6.2385    1.0358   -1.8983 H        1 ZINC000002525885    0.0600
41     H41    -5.5467   -1.8182   -2.7309 H        1 ZINC000002525885    0.0600
42     H42    -5.9364   -0.4797   -3.8376 H        1 ZINC000002525885    0.0700
43     H43    -3.9957    0.7995   -2.9738 H        1 ZINC000002525885    0.0700
44     H44    -3.4834   -0.7750   -3.6271 H        1 ZINC000002525885    0.0700
@<TRIPOS>BOND
1     1     2     1
2     1     21    1
3     1     22    1
4     1     23    1
5     2     3     1
6     2     4     1
7     3     24    1
8     3     25    1
9     3     26    1
10    4     5     1
11    4     27    1
12    4     28    1
13    5     6     1
14    5     7     1
15    5     14    1
16    7     13    ar
17    7     8     ar
18    8     9     ar
19    8     29    1
20    9     10    ar
21    9     30    1
22    10    11    1
23    10    12    ar
24    11    31    1
25    12    13    ar
26    12    32    1
27    13    33    1
28    14    20    1
29    14    15    1
30    14    16    1
31    15    34    1
32    16    17    1
33    16    35    1
34    16    36    1
35    17    18    1
36    17    37    1
37    17    38    1
38    18    19    1
39    18    39    1
40    18    40    1
41    19    20    1
42    19    41    1
43    19    42    1
44    20    43    1
45    20    44    1
@<TRIPOS>SUBSTRUCTURE
1   ZINC000002525885 1     RESIDUE    1   A     ZIN   1
