@<TRIPOS>MOLECULE
ZINC000000402954
41    45    1     0     0
SMALL
USER_CHARGES
@<TRIPOS>ATOM
1      C1     -0.0178    1.4648    0.0101 C.3      1 ZINC000000402954   -0.0600
2      N2      0.0021   -0.0041    0.0020 N.4      1 ZINC000000402954   -0.3800
3      H3      0.4751   -0.3245   -0.8296 H        1 ZINC000000402954    0.4300
4      C4     -1.3760   -0.5045   -0.0046 C.3      1 ZINC000000402954   -0.0100
5      C5     -2.1235   -0.0002    1.2361 C.3      1 ZINC000000402954   -0.1300
6      C6     -1.3661   -0.4720    2.4756 C.3      1 ZINC000000402954   -0.0500
7      C7     -1.2434   -1.9757    2.4513 C.ar     1 ZINC000000402954   -0.1900
8      C8     -2.2529   -2.4938    3.2490 C.ar     1 ZINC000000402954    0.0900
9      O9     -2.9515   -1.4937    3.8281 O.3      1 ZINC000000402954   -0.2600
10     C10    -2.1691   -0.2641    3.7520 C.3      1 ZINC000000402954    0.0600
11     H11    -2.8114    0.6135    3.6783 H        1 ZINC000000402954    0.1600
12     C12    -1.3088   -0.2071    4.9799 C.2      1 ZINC000000402954    0.3400
13     O13    -1.8015   -0.5034    6.0418 O.2      1 ZINC000000402954   -0.4100
14     C14     0.1338    0.1997    4.9506 C.3      1 ZINC000000402954   -0.1700
15     C15     0.8216   -0.4012    3.7230 C.3      1 ZINC000000402954   -0.1100
16     C16     0.0572    0.0613    2.4472 C.3      1 ZINC000000402954   -0.0900
17     H17     0.0431    1.1504    2.4047 H        1 ZINC000000402954    0.1100
18     C18     0.7274   -0.4827    1.1838 C.3      1 ZINC000000402954    0.0400
19     H19     1.7356   -0.0709    1.1400 H        1 ZINC000000402954    0.1500
20     C20     0.8440   -1.9969    1.1414 C.3      1 ZINC000000402954   -0.0900
21     C21    -0.2501   -2.7090    1.8427 C.ar     1 ZINC000000402954   -0.0600
22     C22    -0.3749   -4.0844    1.9256 C.ar     1 ZINC000000402954   -0.1100
23     C23    -1.3988   -4.6489    2.6689 C.ar     1 ZINC000000402954   -0.1000
24     C24    -2.3585   -3.8859    3.3499 C.ar     1 ZINC000000402954    0.1100
25     O25    -3.3311   -4.4715    4.0986 O.3      1 ZINC000000402954   -0.4800
26     H26     1.0047    1.8421    0.0024 H        1 ZINC000000402954    0.1300
27     H27    -0.5450    1.8259   -0.8730 H        1 ZINC000000402954    0.1300
28     H28    -0.5280    1.8163    0.9069 H        1 ZINC000000402954    0.1200
29     H29    -1.8847   -0.1515   -0.9017 H        1 ZINC000000402954    0.1400
30     H30    -1.3651   -1.5944   -0.0021 H        1 ZINC000000402954    0.1300
31     H31    -2.1647    1.0889    1.2230 H        1 ZINC000000402954    0.1000
32     H32    -3.1348   -0.4067    1.2465 H        1 ZINC000000402954    0.1200
33     H33     0.2023    1.2867    4.9079 H        1 ZINC000000402954    0.1100
34     H34     0.6288   -0.1574    5.8537 H        1 ZINC000000402954    0.1100
35     H35     1.8543   -0.0557    3.6767 H        1 ZINC000000402954    0.1000
36     H36     0.8000   -1.4891    3.7875 H        1 ZINC000000402954    0.0900
37     H37     0.8760   -2.3156    0.0995 H        1 ZINC000000402954    0.1000
38     H38     1.7779   -2.2887    1.6218 H        1 ZINC000000402954    0.1200
39     H39     0.3284   -4.7205    1.4087 H        1 ZINC000000402954    0.1400
40     H40    -1.4781   -5.7256    2.6986 H        1 ZINC000000402954    0.1400
41     H41    -3.0855   -4.6105    5.0235 H        1 ZINC000000402954    0.4000
@<TRIPOS>BOND
1     1     2     1
2     1     26    1
3     1     27    1
4     1     28    1
5     2     3     1
6     2     18    1
7     2     4     1
8     4     5     1
9     4     29    1
10    4     30    1
11    5     6     1
12    5     31    1
13    5     32    1
14    6     10    1
15    6     16    1
16    6     7     1
17    7     21    ar
18    7     8     ar
19    8     24    ar
20    8     9     1
21    9     10    1
22    10    11    1
23    10    12    1
24    12    13    2
25    12    14    1
26    14    15    1
27    14    33    1
28    14    34    1
29    15    16    1
30    15    35    1
31    15    36    1
32    16    17    1
33    16    18    1
34    18    19    1
35    18    20    1
36    20    21    1
37    20    37    1
38    20    38    1
39    21    22    ar
40    22    23    ar
41    22    39    1
42    23    24    ar
43    23    40    1
44    24    25    1
45    25    41    1
@<TRIPOS>SUBSTRUCTURE
1   ZINC000000402954 1     RESIDUE    1   A     ZIN   1

@<TRIPOS>MOLECULE
ZINC000000402954
41    45    1     0     0
SMALL
USER_CHARGES
@<TRIPOS>ATOM
1      C1     -0.0178    1.4648    0.0101 C.3      1 ZINC000000402954   -0.0500
2      N2      0.0021   -0.0041    0.0020 N.4      1 ZINC000000402954   -0.3800
3      H3     -0.9419   -0.3488    0.0922 H        1 ZINC000000402954    0.4300
4      C4      0.5662   -0.4712   -1.2681 C.3      1 ZINC000000402954   -0.0100
5      C5      0.5638   -2.0044   -1.3111 C.3      1 ZINC000000402954   -0.1300
6      C6      1.3719   -2.5176   -0.1211 C.3      1 ZINC000000402954   -0.0500
7      C7      2.7667   -1.9443   -0.1719 C.ar     1 ZINC000000402954   -0.1900
8      C8      3.5929   -2.8966   -0.7500 C.ar     1 ZINC000000402954    0.0900
9      O9      2.8984   -4.0266   -1.0038 O.3      1 ZINC000000402954   -0.2600
10     C10     1.6637   -4.0080   -0.2261 C.3      1 ZINC000000402954    0.0600
11     H11     0.8600   -4.5345   -0.7410 H        1 ZINC000000402954    0.1600
12     C12     1.9642   -4.6386    1.1016 C.2      1 ZINC000000402954    0.3400
13     O13     2.6352   -5.6424    1.1230 O.2      1 ZINC000000402954   -0.4100
14     C14     1.4714   -4.0812    2.4030 C.3      1 ZINC000000402954   -0.1700
15     C15     1.5730   -2.5546    2.3899 C.3      1 ZINC000000402954   -0.1000
16     C16     0.7619   -2.0116    1.1762 C.3      1 ZINC000000402954   -0.0900
17     H17    -0.2738   -2.3429    1.2516 H        1 ZINC000000402954    0.1100
18     C18     0.8000   -0.4815    1.1365 C.3      1 ZINC000000402954    0.0400
19     H19     0.3283   -0.1146    2.0481 H        1 ZINC000000402954    0.1500
20     C20     2.1992    0.1068    1.0708 C.3      1 ZINC000000402954   -0.1000
21     C21     3.1801   -0.7417    0.3550 C.ar     1 ZINC000000402954   -0.0600
22     C22     4.5081   -0.4142    0.1469 C.ar     1 ZINC000000402954   -0.1200
23     C23     5.3602   -1.3140   -0.4725 C.ar     1 ZINC000000402954   -0.1000
24     C24     4.9412   -2.5687   -0.9343 C.ar     1 ZINC000000402954    0.1100
25     O25     5.8120   -3.4418   -1.5080 O.3      1 ZINC000000402954   -0.4800
26     H26     0.9763    1.8429   -0.2280 H        1 ZINC000000402954    0.1300
27     H27    -0.7303    1.8226   -0.7332 H        1 ZINC000000402954    0.1300
28     H28    -0.3144    1.8187    0.9975 H        1 ZINC000000402954    0.1300
29     H29    -0.0322   -0.0853   -2.0934 H        1 ZINC000000402954    0.1400
30     H30     1.5894   -0.1082   -1.3647 H        1 ZINC000000402954    0.1300
31     H31    -0.4601   -2.3723   -1.2462 H        1 ZINC000000402954    0.1000
32     H32     1.0198   -2.3467   -2.2401 H        1 ZINC000000402954    0.1200
33     H33     0.4318   -4.3734    2.5512 H        1 ZINC000000402954    0.1100
34     H34     2.0766   -4.4771    3.2186 H        1 ZINC000000402954    0.1100
35     H35     1.1607   -2.1526    3.3153 H        1 ZINC000000402954    0.1000
36     H36     2.6175   -2.2584    2.2931 H        1 ZINC000000402954    0.0900
37     H37     2.1449    1.0839    0.5909 H        1 ZINC000000402954    0.1100
38     H38     2.5700    0.2401    2.0871 H        1 ZINC000000402954    0.1200
39     H39     4.8821    0.5464    0.4690 H        1 ZINC000000402954    0.1400
40     H40     6.3868   -1.0205   -0.6347 H        1 ZINC000000402954    0.1400
41     H41     6.2359   -4.0436   -0.8809 H        1 ZINC000000402954    0.4000
@<TRIPOS>BOND
1     1     2     1
2     1     26    1
3     1     27    1
4     1     28    1
5     2     3     1
6     2     18    1
7     2     4     1
8     4     5     1
9     4     29    1
10    4     30    1
11    5     6     1
12    5     31    1
13    5     32    1
14    6     10    1
15    6     16    1
16    6     7     1
17    7     21    ar
18    7     8     ar
19    8     24    ar
20    8     9     1
21    9     10    1
22    10    11    1
23    10    12    1
24    12    13    2
25    12    14    1
26    14    15    1
27    14    33    1
28    14    34    1
29    15    16    1
30    15    35    1
31    15    36    1
32    16    17    1
33    16    18    1
34    18    19    1
35    18    20    1
36    20    21    1
37    20    37    1
38    20    38    1
39    21    22    ar
40    22    23    ar
41    22    39    1
42    23    24    ar
43    23    40    1
44    24    25    1
45    25    41    1
@<TRIPOS>SUBSTRUCTURE
1   ZINC000000402954 1     RESIDUE    1   A     ZIN   1

@<TRIPOS>MOLECULE
ZINC000000402954
40    44    1     0     0
SMALL
USER_CHARGES
@<TRIPOS>ATOM
1      C1     -0.0178    1.4648    0.0101 C.3      1 ZINC000000402954    0.0200
2      N2      0.0021   -0.0041    0.0020 N.3      1 ZINC000000402954   -0.5400
3      C3      0.4565   -0.5166   -1.2955 C.3      1 ZINC000000402954    0.0500
4      C4      0.3567   -2.0468   -1.3147 C.3      1 ZINC000000402954   -0.1000
5      C5      1.1860   -2.5993   -0.1575 C.3      1 ZINC000000402954   -0.0400
6      C6      2.6105   -2.1170   -0.2767 C.ar     1 ZINC000000402954   -0.1700
7      C7      3.3458   -3.1220   -0.8879 C.ar     1 ZINC000000402954    0.0900
8      O8      2.5698   -4.2066   -1.0999 O.3      1 ZINC000000402954   -0.2700
9      C9      1.3778   -4.1064   -0.2643 C.3      1 ZINC000000402954    0.0500
10     H10     0.5188   -4.5830   -0.7366 H        1 ZINC000000402954    0.1500
11     C11     1.6998   -4.7487    1.0525 C.2      1 ZINC000000402954    0.3500
12     O12     2.3088   -5.7915    1.0506 O.2      1 ZINC000000402954   -0.4300
13     C13     1.3015   -4.1563    2.3708 C.3      1 ZINC000000402954   -0.1600
14     C14     1.4988   -2.6394    2.3423 C.3      1 ZINC000000402954   -0.1100
15     C15     0.6702   -2.0502    1.1627 C.3      1 ZINC000000402954   -0.0600
16     H16    -0.3803   -2.3127    1.2875 H        1 ZINC000000402954    0.1000
17     C17     0.8060   -0.5255    1.1143 C.3      1 ZINC000000402954    0.1000
18     H18     0.3935   -0.1237    2.0398 H        1 ZINC000000402954    0.0900
19     C19     2.2378   -0.0320    0.9888 C.3      1 ZINC000000402954   -0.1100
20     C20     3.1261   -0.9437    0.2256 C.ar     1 ZINC000000402954   -0.0300
21     C21     4.4610   -0.7032   -0.0472 C.ar     1 ZINC000000402954   -0.1300
22     C22     5.2216   -1.6556   -0.7058 C.ar     1 ZINC000000402954   -0.1100
23     C23     4.7019   -2.8819   -1.1386 C.ar     1 ZINC000000402954    0.0900
24     O24     5.4852   -3.8088   -1.7522 O.3      1 ZINC000000402954   -0.4800
25     H25     0.9796    1.8429   -0.2142 H        1 ZINC000000402954    0.0300
26     H26    -0.7199    1.8228   -0.7429 H        1 ZINC000000402954    0.0700
27     H27    -0.3279    1.8185    0.9934 H        1 ZINC000000402954    0.0700
28     H28    -0.1682   -0.1030   -2.0872 H        1 ZINC000000402954    0.0800
29     H29     1.4921   -0.2190   -1.4599 H        1 ZINC000000402954    0.0400
30     H30    -0.6842   -2.3477   -1.1960 H        1 ZINC000000402954    0.0800
31     H31     0.7460   -2.4275   -2.2589 H        1 ZINC000000402954    0.0800
32     H32     0.2531   -4.3813    2.5666 H        1 ZINC000000402954    0.1100
33     H33     1.9163   -4.5865    3.1614 H        1 ZINC000000402954    0.1000
34     H34     1.1550   -2.2083    3.2825 H        1 ZINC000000402954    0.0900
35     H35     2.5546   -2.4107    2.1970 H        1 ZINC000000402954    0.0700
36     H36     2.2289    0.9485    0.5128 H        1 ZINC000000402954    0.0900
37     H37     2.6604    0.0718    1.9882 H        1 ZINC000000402954    0.0900
38     H38     4.9118    0.2308    0.2542 H        1 ZINC000000402954    0.1300
39     H39     6.2557   -1.4289   -0.9195 H        1 ZINC000000402954    0.1300
40     H40     5.9029   -4.4349   -1.1450 H        1 ZINC000000402954    0.3900
@<TRIPOS>BOND
1     1     2     1
2     1     25    1
3     1     26    1
4     1     27    1
5     2     17    1
6     2     3     1
7     3     4     1
8     3     28    1
9     3     29    1
10    4     5     1
11    4     30    1
12    4     31    1
13    5     9     1
14    5     15    1
15    5     6     1
16    6     20    ar
17    6     7     ar
18    7     23    ar
19    7     8     1
20    8     9     1
21    9     10    1
22    9     11    1
23    11    12    2
24    11    13    1
25    13    14    1
26    13    32    1
27    13    33    1
28    14    15    1
29    14    34    1
30    14    35    1
31    15    16    1
32    15    17    1
33    17    18    1
34    17    19    1
35    19    20    1
36    19    36    1
37    19    37    1
38    20    21    ar
39    21    22    ar
40    21    38    1
41    22    23    ar
42    22    39    1
43    23    24    1
44    24    40    1
@<TRIPOS>SUBSTRUCTURE
1   ZINC000000402954 1     RESIDUE    1   A     ZIN   1
