@<TRIPOS>MOLECULE
ZINC000008015016
11    10    1     0     0
SMALL
USER_CHARGES
@<TRIPOS>ATOM
1      O1      0.0021   -0.0041    0.0020 O.co2    1 ZINC000008015016   -1.2400
2      P2     -0.0192    1.5624    0.0106 P.3      1 ZINC000008015016    2.2600
3      O3      1.4506    2.1047   -0.0005 O.co2    1 ZINC000008015016   -1.1900
4      O4     -0.7769    2.0814   -1.2586 O.co2    1 ZINC000008015016   -1.1900
5      C5     -0.8725    2.1503    1.5105 C.3      1 ZINC000008015016   -1.3200
6      P6     -0.8972    3.9731    1.5205 P.3      1 ZINC000008015016    2.2600
7      O7      0.5726    4.5154    1.5094 O.co2    1 ZINC000008015016   -1.1900
8      O8     -1.6549    4.4921    0.2513 O.co2    1 ZINC000008015016   -1.1900
9      O9     -1.6305    4.4784    2.8095 O.co2    1 ZINC000008015016   -1.2400
10     H10    -1.8950    1.7731    1.5182 H        1 ZINC000008015016    0.0200
11     H11    -0.3453    1.7893    2.3936 H        1 ZINC000008015016    0.0200
@<TRIPOS>BOND
1     1     2     ar
2     2     3     ar
3     2     4     ar
4     2     5     1
5     5     6     1
6     5     10    1
7     5     11    1
8     6     7     ar
9     6     8     ar
10    6     9     ar
@<TRIPOS>SUBSTRUCTURE
1   ZINC000008015016 1     RESIDUE    1   A     ZIN   1

@<TRIPOS>MOLECULE
ZINC000008015016
13    12    1     0     0
SMALL
USER_CHARGES
@<TRIPOS>ATOM
1      O1      0.0021   -0.0041    0.0020 O.2      1 ZINC000008015016   -1.0800
2      P2     -0.0189    1.5408    0.0105 P.3      1 ZINC000008015016    2.2500
3      O3      1.4306    2.0755   -0.0005 O.3      1 ZINC000008015016   -1.0800
4      O4     -0.7976    2.0741   -1.2938 O.3      1 ZINC000008015016   -0.9100
5      C5     -0.8722    2.1287    1.5104 C.3      1 ZINC000008015016   -1.3100
6      P6      0.0095    1.5248    2.9873 P.3      1 ZINC000008015016    2.2500
7      O7      1.4590    2.0596    2.9763 O.2      1 ZINC000008015016   -1.0800
8      O8      0.0305   -0.0201    2.9788 O.3      1 ZINC000008015016   -1.0800
9      O9     -0.7440    2.0440    4.3119 O.3      1 ZINC000008015016   -0.9100
10     H10    -0.3982    1.7988   -2.1303 H        1 ZINC000008015016    0.4000
11     H11    -0.8869    3.2186    1.5164 H        1 ZINC000008015016    0.0800
12     H12    -1.8948    1.7514    1.5181 H        1 ZINC000008015016    0.0800
13     H13    -0.3288    1.7597    5.1376 H        1 ZINC000008015016    0.4000
@<TRIPOS>BOND
1     1     2     2
2     2     3     1
3     2     4     1
4     2     5     1
5     4     10    1
6     5     6     1
7     5     11    1
8     5     12    1
9     6     7     2
10    6     8     1
11    6     9     1
12    9     13    1
@<TRIPOS>SUBSTRUCTURE
1   ZINC000008015016 1     RESIDUE    1   A     ZIN   1

@<TRIPOS>MOLECULE
ZINC000008015016
13    12    1     0     0
SMALL
USER_CHARGES
@<TRIPOS>ATOM
1      O1      0.0021   -0.0041    0.0020 O.2      1 ZINC000008015016   -1.0800
2      P2     -0.0189    1.5408    0.0105 P.3      1 ZINC000008015016    2.2500
3      O3      1.4306    2.0755   -0.0005 O.3      1 ZINC000008015016   -1.0800
4      O4     -0.7976    2.0741   -1.2938 O.3      1 ZINC000008015016   -0.9100
5      C5     -0.8722    2.1287    1.5104 C.3      1 ZINC000008015016   -1.3100
6      P6      0.0095    1.5248    2.9873 P.3      1 ZINC000008015016    2.2500
7      O7      0.0305   -0.0201    2.9788 O.2      1 ZINC000008015016   -1.0800
8      O8      1.4590    2.0596    2.9763 O.3      1 ZINC000008015016   -1.0800
9      O9     -0.7440    2.0440    4.3119 O.3      1 ZINC000008015016   -0.9100
10     H10    -0.3982    1.7988   -2.1303 H        1 ZINC000008015016    0.4000
11     H11    -0.8869    3.2186    1.5164 H        1 ZINC000008015016    0.0800
12     H12    -1.8948    1.7514    1.5181 H        1 ZINC000008015016    0.0800
13     H13    -0.3288    1.7597    5.1376 H        1 ZINC000008015016    0.4000
@<TRIPOS>BOND
1     1     2     2
2     2     3     1
3     2     4     1
4     2     5     1
5     4     10    1
6     5     6     1
7     5     11    1
8     5     12    1
9     6     7     2
10    6     8     1
11    6     9     1
12    9     13    1
@<TRIPOS>SUBSTRUCTURE
1   ZINC000008015016 1     RESIDUE    1   A     ZIN   1
