@<TRIPOS>MOLECULE
ZINC000000155269
44    45    1     0     0
SMALL
USER_CHARGES
@<TRIPOS>ATOM
1      C1     -0.1611    1.7594    0.0796 C.3      1 ZINC000000155269   -0.1300
2      C2     -0.0413    0.2583    0.0211 C.ar     1 ZINC000000155269   -0.0700
3      C3      0.0010   -0.3844   -1.2018 C.ar     1 ZINC000000155269   -0.1200
4      C4      0.1109   -1.7616   -1.2554 C.ar     1 ZINC000000155269   -0.1000
5      C5      0.1790   -2.4955   -0.0862 C.ar     1 ZINC000000155269   -0.1300
6      C6      0.1377   -1.8525    1.1370 C.ar     1 ZINC000000155269   -0.1000
7      C7      0.0321   -0.4755    1.1906 C.ar     1 ZINC000000155269   -0.1200
8      C8     -0.0130    0.2254    2.5239 C.3      1 ZINC000000155269    0.1900
9      H9     -0.6713    1.0916    2.4570 H        1 ZINC000000155269    0.0900
10     O10    -0.5083   -0.6736    3.5182 O.3      1 ZINC000000155269   -0.3800
11     C11    -1.9286   -0.6434    3.6733 C.3      1 ZINC000000155269    0.0300
12     C12    -2.3444   -1.6396    4.7575 C.3      1 ZINC000000155269    0.0000
13     N13    -1.7792   -1.2232    6.0479 N.4      1 ZINC000000155269   -0.3900
14     H14    -0.7819   -1.1016    5.9547 H        1 ZINC000000155269    0.4300
15     C15    -2.3905    0.0464    6.4634 C.3      1 ZINC000000155269   -0.0500
16     C16    -2.0547   -2.2531    7.0584 C.3      1 ZINC000000155269   -0.0500
17     C17     1.3744    0.6769    2.9013 C.ar     1 ZINC000000155269   -0.0900
18     C18     2.2726   -0.2259    3.4391 C.ar     1 ZINC000000155269   -0.0900
19     C19     3.5452    0.1882    3.7852 C.ar     1 ZINC000000155269   -0.1200
20     C20     3.9198    1.5049    3.5932 C.ar     1 ZINC000000155269   -0.1100
21     C21     3.0219    2.4074    3.0545 C.ar     1 ZINC000000155269   -0.1200
22     C22     1.7507    1.9924    2.7044 C.ar     1 ZINC000000155269   -0.1100
23     H23     0.8343    2.2036    0.0811 H        1 ZINC000000155269    0.0800
24     H24    -0.7158    2.1137   -0.7892 H        1 ZINC000000155269    0.0700
25     H25    -0.6885    2.0466    0.9893 H        1 ZINC000000155269    0.0600
26     H26    -0.0522    0.1890   -2.1154 H        1 ZINC000000155269    0.1300
27     H27     0.1432   -2.2639   -2.2110 H        1 ZINC000000155269    0.1300
28     H28     0.2642   -3.5713   -0.1282 H        1 ZINC000000155269    0.1200
29     H29     0.1905   -2.4260    2.0506 H        1 ZINC000000155269    0.1200
30     H30    -2.2413    0.3599    3.9625 H        1 ZINC000000155269    0.0800
31     H31    -2.4029   -0.9141    2.7300 H        1 ZINC000000155269    0.1000
32     H32    -3.4318   -1.6662    4.8287 H        1 ZINC000000155269    0.1400
33     H33    -1.9728   -2.6317    4.5013 H        1 ZINC000000155269    0.1400
34     H34    -3.4679   -0.0849    6.5640 H        1 ZINC000000155269    0.1200
35     H35    -1.9711    0.3554    7.4209 H        1 ZINC000000155269    0.1300
36     H36    -2.1861    0.8106    5.7136 H        1 ZINC000000155269    0.1200
37     H37    -3.1319   -2.3900    7.1535 H        1 ZINC000000155269    0.1200
38     H38    -1.5946   -3.1932    6.7539 H        1 ZINC000000155269    0.1200
39     H39    -1.6421   -1.9406    8.0177 H        1 ZINC000000155269    0.1200
40     H40     1.9799   -1.2546    3.5892 H        1 ZINC000000155269    0.1200
41     H41     4.2467   -0.5169    4.2061 H        1 ZINC000000155269    0.1300
42     H42     4.9139    1.8286    3.8643 H        1 ZINC000000155269    0.1300
43     H43     3.3144    3.4362    2.9048 H        1 ZINC000000155269    0.1300
44     H44     1.0492    2.6975    2.2836 H        1 ZINC000000155269    0.1200
@<TRIPOS>BOND
1     1     2     1
2     1     23    1
3     1     24    1
4     1     25    1
5     2     7     ar
6     2     3     ar
7     3     4     ar
8     3     26    1
9     4     5     ar
10    4     27    1
11    5     6     ar
12    5     28    1
13    6     7     ar
14    6     29    1
15    7     8     1
16    8     9     1
17    8     10    1
18    8     17    1
19    10    11    1
20    11    12    1
21    11    30    1
22    11    31    1
23    12    13    1
24    12    32    1
25    12    33    1
26    13    14    1
27    13    15    1
28    13    16    1
29    15    34    1
30    15    35    1
31    15    36    1
32    16    37    1
33    16    38    1
34    16    39    1
35    17    22    ar
36    17    18    ar
37    18    19    ar
38    18    40    1
39    19    20    ar
40    19    41    1
41    20    21    ar
42    20    42    1
43    21    22    ar
44    21    43    1
45    22    44    1
@<TRIPOS>SUBSTRUCTURE
1   ZINC000000155269 1     RESIDUE    1   A     ZIN   1

@<TRIPOS>MOLECULE
ZINC000000155269
43    44    1     0     0
SMALL
USER_CHARGES
@<TRIPOS>ATOM
1      C1     -0.0184    1.5028    0.0103 C.3      1 ZINC000000155269   -0.1200
2      C2      0.0021   -0.0041    0.0020 C.ar     1 ZINC000000155269   -0.0800
3      C3      0.0057   -0.6885   -1.1987 C.ar     1 ZINC000000155269   -0.1200
4      C4      0.0245   -2.0710   -1.2063 C.ar     1 ZINC000000155269   -0.1100
5      C5      0.0400   -2.7685   -0.0132 C.ar     1 ZINC000000155269   -0.1300
6      C6      0.0373   -2.0838    1.1879 C.ar     1 ZINC000000155269   -0.0900
7      C7      0.0229   -0.7017    1.1955 C.ar     1 ZINC000000155269   -0.0800
8      C8      0.0199    0.0446    2.5047 C.3      1 ZINC000000155269    0.1700
9      H9     -0.5794    0.9497    2.4056 H        1 ZINC000000155269    0.0800
10     O10    -0.5370   -0.7861    3.5253 O.3      1 ZINC000000155269   -0.3500
11     C11    -1.2047   -0.0643    4.5623 C.3      1 ZINC000000155269    0.0600
12     C12    -1.7583   -1.0491    5.5941 C.3      1 ZINC000000155269    0.0600
13     N13    -0.6450   -1.7411    6.2571 N.3      1 ZINC000000155269   -0.5400
14     C14     0.1531   -0.8052    7.0603 C.3      1 ZINC000000155269    0.0200
15     C15    -1.1332   -2.8566    7.0790 C.3      1 ZINC000000155269    0.0200
16     C16     1.4329    0.4158    2.8745 C.ar     1 ZINC000000155269   -0.1100
17     C17     2.2676   -0.5259    3.4467 C.ar     1 ZINC000000155269   -0.0800
18     C18     3.5637   -0.1855    3.7860 C.ar     1 ZINC000000155269   -0.1200
19     C19     4.0253    1.0965    3.5526 C.ar     1 ZINC000000155269   -0.1200
20     C20     3.1908    2.0379    2.9796 C.ar     1 ZINC000000155269   -0.1200
21     C21     1.8961    1.6963    2.6364 C.ar     1 ZINC000000155269   -0.1100
22     H22     1.0042    1.8801    0.0026 H        1 ZINC000000155269    0.0700
23     H23    -0.5455    1.8639   -0.8728 H        1 ZINC000000155269    0.0700
24     H24    -0.5286    1.8543    0.9071 H        1 ZINC000000155269    0.0700
25     H25    -0.0064   -0.1435   -2.1310 H        1 ZINC000000155269    0.1200
26     H26     0.0266   -2.6058   -2.1446 H        1 ZINC000000155269    0.1200
27     H27     0.0540   -3.8484   -0.0191 H        1 ZINC000000155269    0.1200
28     H28     0.0491   -2.6288    2.1202 H        1 ZINC000000155269    0.1300
29     H29    -0.4997    0.6113    5.0466 H        1 ZINC000000155269    0.0500
30     H30    -2.0245    0.5122    4.1338 H        1 ZINC000000155269    0.0500
31     H31    -2.3429   -0.5065    6.3371 H        1 ZINC000000155269    0.0500
32     H32    -2.3943   -1.7797    5.0943 H        1 ZINC000000155269    0.0800
33     H33    -0.4792   -0.3501    7.8227 H        1 ZINC000000155269    0.0200
34     H34     0.9704   -1.3437    7.5401 H        1 ZINC000000155269    0.0700
35     H35     0.5601   -0.0275    6.4141 H        1 ZINC000000155269    0.0700
36     H36    -1.6612   -3.5701    6.4464 H        1 ZINC000000155269    0.0700
37     H37    -0.2886   -3.3515    7.5583 H        1 ZINC000000155269    0.0700
38     H38    -1.8120   -2.4757    7.8420 H        1 ZINC000000155269    0.0200
39     H39     1.9071   -1.5275    3.6291 H        1 ZINC000000155269    0.1300
40     H40     4.2157   -0.9210    4.2337 H        1 ZINC000000155269    0.1200
41     H41     5.0377    1.3627    3.8183 H        1 ZINC000000155269    0.1200
42     H42     3.5513    3.0396    2.7976 H        1 ZINC000000155269    0.1200
43     H43     1.2441    2.4318    2.1887 H        1 ZINC000000155269    0.1200
@<TRIPOS>BOND
1     1     2     1
2     1     22    1
3     1     23    1
4     1     24    1
5     2     7     ar
6     2     3     ar
7     3     4     ar
8     3     25    1
9     4     5     ar
10    4     26    1
11    5     6     ar
12    5     27    1
13    6     7     ar
14    6     28    1
15    7     8     1
16    8     9     1
17    8     10    1
18    8     16    1
19    10    11    1
20    11    12    1
21    11    29    1
22    11    30    1
23    12    13    1
24    12    31    1
25    12    32    1
26    13    14    1
27    13    15    1
28    14    33    1
29    14    34    1
30    14    35    1
31    15    36    1
32    15    37    1
33    15    38    1
34    16    21    ar
35    16    17    ar
36    17    18    ar
37    17    39    1
38    18    19    ar
39    18    40    1
40    19    20    ar
41    19    41    1
42    20    21    ar
43    20    42    1
44    21    43    1
@<TRIPOS>SUBSTRUCTURE
1   ZINC000000155269 1     RESIDUE    1   A     ZIN   1
