@<TRIPOS>MOLECULE
ZINC000000897002
47    48    1     0     0
SMALL
USER_CHARGES
@<TRIPOS>ATOM
1      C1      0.1160    2.0249    4.9404 C.3      1 ZINC000000897002   -0.1600
2      C2     -0.2269    0.9750    3.8817 C.3      1 ZINC000000897002   -0.1400
3      C3      0.8113   -0.1482    3.9223 C.3      1 ZINC000000897002   -0.0200
4      N4      0.4821   -1.1563    2.9058 N.4      1 ZINC000000897002   -0.3700
5      H5      0.3979   -0.7092    2.0052 H        1 ZINC000000897002    0.4300
6      C6     -0.7908   -1.8002    3.2517 C.3      1 ZINC000000897002   -0.0100
7      C7     -1.1789   -2.7936    2.1544 C.3      1 ZINC000000897002   -0.1500
8      C8     -0.0850   -3.8576    2.0264 C.3      1 ZINC000000897002   -0.1300
9      C9      1.2523   -3.1688    1.7392 C.3      1 ZINC000000897002   -0.1400
10     C10     1.5495   -2.1625    2.8531 C.3      1 ZINC000000897002    0.0100
11     H11     1.6058   -2.6846    3.8082 H        1 ZINC000000897002    0.1600
12     C12     2.8645   -1.4808    2.5756 C.2      1 ZINC000000897002    0.5000
13     O13     2.8906   -0.4511    1.9352 O.2      1 ZINC000000897002   -0.5000
14     N14     4.0117   -2.0153    3.0391 N.am     1 ZINC000000897002   -0.6500
15     C15     5.2191   -1.3264    2.8798 C.ar     1 ZINC000000897002    0.1000
16     C16     5.6470   -0.9564    1.6115 C.ar     1 ZINC000000897002   -0.0600
17     C17     4.8111   -1.2961    0.4044 C.3      1 ZINC000000897002   -0.1100
18     C18     6.8393   -0.2765    1.4576 C.ar     1 ZINC000000897002   -0.1100
19     C19     7.6069    0.0355    2.5647 C.ar     1 ZINC000000897002   -0.1000
20     C20     7.1837   -0.3318    3.8289 C.ar     1 ZINC000000897002   -0.1100
21     C21     5.9892   -1.0061    3.9901 C.ar     1 ZINC000000897002   -0.0800
22     C22     5.5288   -1.4060    5.3682 C.3      1 ZINC000000897002   -0.1100
23     H23     1.1047    2.4365    4.7372 H        1 ZINC000000897002    0.0700
24     H24    -0.6236    2.8251    4.9115 H        1 ZINC000000897002    0.0800
25     H25     0.1112    1.5613    5.9269 H        1 ZINC000000897002    0.0700
26     H26    -1.2155    0.5635    4.0849 H        1 ZINC000000897002    0.0900
27     H27    -0.2221    1.4387    2.8952 H        1 ZINC000000897002    0.0900
28     H28     1.7999    0.2634    3.7191 H        1 ZINC000000897002    0.1300
29     H29     0.8065   -0.6119    4.9088 H        1 ZINC000000897002    0.1300
30     H30    -0.6844   -2.3290    4.1988 H        1 ZINC000000897002    0.1300
31     H31    -1.5676   -1.0414    3.3455 H        1 ZINC000000897002    0.1400
32     H32    -2.1233   -3.2719    2.4139 H        1 ZINC000000897002    0.1200
33     H33    -1.2859   -2.2657    1.2067 H        1 ZINC000000897002    0.0900
34     H34    -0.0128   -4.4199    2.9574 H        1 ZINC000000897002    0.0900
35     H35    -0.3293   -4.5350    1.2081 H        1 ZINC000000897002    0.1000
36     H36     2.0456   -3.9153    1.7019 H        1 ZINC000000897002    0.1200
37     H37     1.1958   -2.6487    0.7829 H        1 ZINC000000897002    0.1000
38     H38     4.0002   -2.8777    3.4831 H        1 ZINC000000897002    0.4100
39     H39     4.2094   -0.4315    0.1242 H        1 ZINC000000897002    0.0800
40     H40     5.4641   -1.5684   -0.4248 H        1 ZINC000000897002    0.0700
41     H41     4.1553   -2.1340    0.6408 H        1 ZINC000000897002    0.0500
42     H42     7.1727    0.0114    0.4715 H        1 ZINC000000897002    0.1300
43     H43     8.5390    0.5670    2.4417 H        1 ZINC000000897002    0.1300
44     H44     7.7858   -0.0873    4.6915 H        1 ZINC000000897002    0.1300
45     H45     4.9247   -0.6059    5.7959 H        1 ZINC000000897002    0.0700
46     H46     4.9325   -2.3160    5.3022 H        1 ZINC000000897002    0.0600
47     H47     6.3964   -1.5855    6.0032 H        1 ZINC000000897002    0.0800
@<TRIPOS>BOND
1     1     2     1
2     1     23    1
3     1     24    1
4     1     25    1
5     2     3     1
6     2     26    1
7     2     27    1
8     3     4     1
9     3     28    1
10    3     29    1
11    4     5     1
12    4     10    1
13    4     6     1
14    6     7     1
15    6     30    1
16    6     31    1
17    7     8     1
18    7     32    1
19    7     33    1
20    8     9     1
21    8     34    1
22    8     35    1
23    9     10    1
24    9     36    1
25    9     37    1
26    10    11    1
27    10    12    1
28    12    13    2
29    12    14    am
30    14    15    1
31    14    38    1
32    15    21    ar
33    15    16    ar
34    16    17    1
35    16    18    ar
36    17    39    1
37    17    40    1
38    17    41    1
39    18    19    ar
40    18    42    1
41    19    20    ar
42    19    43    1
43    20    21    ar
44    20    44    1
45    21    22    1
46    22    45    1
47    22    46    1
48    22    47    1
@<TRIPOS>SUBSTRUCTURE
1   ZINC000000897002 1     RESIDUE    1   A     ZIN   1

@<TRIPOS>MOLECULE
ZINC000000897002
47    48    1     0     0
SMALL
USER_CHARGES
@<TRIPOS>ATOM
1      C1      1.1543   -1.1108   -2.2000 C.3      1 ZINC000000897002   -0.1500
2      C2      1.0850   -2.4180   -1.4080 C.3      1 ZINC000000897002   -0.1400
3      C3      1.4822   -2.1550    0.0460 C.3      1 ZINC000000897002   -0.0300
4      N4      1.4156   -3.4101    0.8064 N.4      1 ZINC000000897002   -0.3600
5      H5      0.4965   -3.8143    0.7067 H        1 ZINC000000897002    0.4200
6      C6      2.4195   -4.3477    0.2891 C.3      1 ZINC000000897002   -0.0400
7      C7      2.3003   -5.6849    1.0234 C.3      1 ZINC000000897002   -0.1400
8      C8      2.5319   -5.4614    2.5205 C.3      1 ZINC000000897002   -0.1400
9      C9      1.5269   -4.4260    3.0335 C.3      1 ZINC000000897002   -0.1400
10     C10     1.6766   -3.1357    2.2245 C.3      1 ZINC000000897002    0.0100
11     H11     0.9630   -2.3955    2.5866 H        1 ZINC000000897002    0.1600
12     C12     3.0770   -2.6027    2.3847 C.2      1 ZINC000000897002    0.5000
13     O13     3.7689   -2.4122    1.4069 O.2      1 ZINC000000897002   -0.5000
14     N14     3.5607   -2.3376    3.6145 N.am     1 ZINC000000897002   -0.6400
15     C15     4.8368   -1.7825    3.7597 C.ar     1 ZINC000000897002    0.1100
16     C16     5.7362   -2.3326    4.6637 C.ar     1 ZINC000000897002   -0.0800
17     C17     5.3391   -3.5289    5.4896 C.3      1 ZINC000000897002   -0.1200
18     C18     6.9951   -1.7823    4.8047 C.ar     1 ZINC000000897002   -0.1100
19     C19     7.3602   -0.6845    4.0473 C.ar     1 ZINC000000897002   -0.1000
20     C20     6.4668   -0.1341    3.1466 C.ar     1 ZINC000000897002   -0.1100
21     C21     5.2088   -0.6838    2.9961 C.ar     1 ZINC000000897002   -0.0700
22     C22     4.2358   -0.0834    2.0143 C.3      1 ZINC000000897002   -0.1200
23     H23     2.1708   -0.7190   -2.1662 H        1 ZINC000000897002    0.0700
24     H24     0.8713   -1.2981   -3.2358 H        1 ZINC000000897002    0.0800
25     H25     0.4700   -0.3840   -1.7622 H        1 ZINC000000897002    0.0700
26     H26     0.0684   -2.8098   -1.4417 H        1 ZINC000000897002    0.0800
27     H27     1.7692   -3.1448   -1.8458 H        1 ZINC000000897002    0.0900
28     H28     2.4988   -1.7632    0.0797 H        1 ZINC000000897002    0.1500
29     H29     0.7979   -1.4282    0.4838 H        1 ZINC000000897002    0.1200
30     H30     2.2554   -4.5033   -0.7772 H        1 ZINC000000897002    0.1300
31     H31     3.4162   -3.9352    0.4460 H        1 ZINC000000897002    0.1600
32     H32     1.3040   -6.0985    0.8669 H        1 ZINC000000897002    0.0900
33     H33     3.0477   -6.3791    0.6391 H        1 ZINC000000897002    0.1100
34     H34     2.3922   -6.4009    3.0552 H        1 ZINC000000897002    0.1000
35     H35     3.5461   -5.0961    2.6819 H        1 ZINC000000897002    0.0800
36     H36     0.5146   -4.8134    2.9188 H        1 ZINC000000897002    0.1100
37     H37     1.7215   -4.2203    4.0861 H        1 ZINC000000897002    0.1100
38     H38     3.0240   -2.5317    4.3989 H        1 ZINC000000897002    0.4100
39     H39     5.5124   -4.4398    4.9164 H        1 ZINC000000897002    0.0700
40     H40     5.9351   -3.5547    6.4018 H        1 ZINC000000897002    0.0800
41     H41     4.2825   -3.4577    5.7478 H        1 ZINC000000897002    0.0600
42     H42     7.6949   -2.2096    5.5076 H        1 ZINC000000897002    0.1300
43     H43     8.3451   -0.2557    4.1597 H        1 ZINC000000897002    0.1300
44     H44     6.7548    0.7237    2.5570 H        1 ZINC000000897002    0.1300
45     H45     4.2697   -0.6441    1.0802 H        1 ZINC000000897002    0.1000
46     H46     3.2284   -0.1274    2.4281 H        1 ZINC000000897002    0.0500
47     H47     4.5056    0.9555    1.8245 H        1 ZINC000000897002    0.0700
@<TRIPOS>BOND
1     1     2     1
2     1     23    1
3     1     24    1
4     1     25    1
5     2     3     1
6     2     26    1
7     2     27    1
8     3     4     1
9     3     28    1
10    3     29    1
11    4     5     1
12    4     10    1
13    4     6     1
14    6     7     1
15    6     30    1
16    6     31    1
17    7     8     1
18    7     32    1
19    7     33    1
20    8     9     1
21    8     34    1
22    8     35    1
23    9     10    1
24    9     36    1
25    9     37    1
26    10    11    1
27    10    12    1
28    12    13    2
29    12    14    am
30    14    15    1
31    14    38    1
32    15    21    ar
33    15    16    ar
34    16    17    1
35    16    18    ar
36    17    39    1
37    17    40    1
38    17    41    1
39    18    19    ar
40    18    42    1
41    19    20    ar
42    19    43    1
43    20    21    ar
44    20    44    1
45    21    22    1
46    22    45    1
47    22    46    1
48    22    47    1
@<TRIPOS>SUBSTRUCTURE
1   ZINC000000897002 1     RESIDUE    1   A     ZIN   1

@<TRIPOS>MOLECULE
ZINC000000897002
46    47    1     0     0
SMALL
USER_CHARGES
@<TRIPOS>ATOM
1      C1      4.5507    2.0308   -1.3924 C.3      1 ZINC000000897002   -0.1500
2      C2      3.6490    0.9350   -0.8205 C.3      1 ZINC000000897002   -0.1200
3      C3      3.2773   -0.0505   -1.9302 C.3      1 ZINC000000897002    0.0500
4      N4      2.4116   -1.1026   -1.3811 N.3      1 ZINC000000897002   -0.5100
5      C5      3.0114   -1.7061   -0.1842 C.3      1 ZINC000000897002    0.0500
6      C6      2.0219   -2.6913    0.4423 C.3      1 ZINC000000897002   -0.1200
7      C7      1.6738   -3.7770   -0.5798 C.3      1 ZINC000000897002   -0.1200
8      C8      1.0960   -3.1184   -1.8355 C.3      1 ZINC000000897002   -0.1100
9      C9      2.1123   -2.1208   -2.3960 C.3      1 ZINC000000897002    0.0700
10     H10     3.0285   -2.6473   -2.6635 H        1 ZINC000000897002    0.0600
11     C11     1.5397   -1.4554   -3.6209 C.2      1 ZINC000000897002    0.5200
12     O12     0.9193   -0.4188   -3.5138 O.2      1 ZINC000000897002   -0.4900
13     N13     1.7171   -2.0122   -4.8354 N.am     1 ZINC000000897002   -0.6800
14     C14     1.2870   -1.3381   -5.9837 C.ar     1 ZINC000000897002    0.1300
15     C15    -0.0409   -0.9505   -6.1067 C.ar     1 ZINC000000897002   -0.0600
16     C16    -1.0208   -1.2549   -5.0030 C.3      1 ZINC000000897002   -0.1100
17     C17    -0.4623   -0.2853   -7.2413 C.ar     1 ZINC000000897002   -0.1200
18     C18     0.4363   -0.0056   -8.2545 C.ar     1 ZINC000000897002   -0.1100
19     C19     1.7591   -0.3907   -8.1353 C.ar     1 ZINC000000897002   -0.1200
20     C20     2.1883   -1.0502   -7.0002 C.ar     1 ZINC000000897002   -0.0900
21     C21     3.6300   -1.4695   -6.8711 C.3      1 ZINC000000897002   -0.1100
22     H22     5.4571    1.5809   -1.7974 H        1 ZINC000000897002    0.0500
23     H23     4.0217    2.5593   -2.1855 H        1 ZINC000000897002    0.0600
24     H24     4.8155    2.7329   -0.6018 H        1 ZINC000000897002    0.0600
25     H25     4.1780    0.4064   -0.0274 H        1 ZINC000000897002    0.0600
26     H26     2.7426    1.3849   -0.4154 H        1 ZINC000000897002    0.0700
27     H27     2.7484    0.4781   -2.7233 H        1 ZINC000000897002    0.0900
28     H28     4.1838   -0.5004   -2.3352 H        1 ZINC000000897002    0.0300
29     H29     3.9233   -2.2346   -0.4621 H        1 ZINC000000897002    0.0300
30     H30     3.2503   -0.9238    0.5362 H        1 ZINC000000897002    0.0900
31     H31     2.4733   -3.1507    1.3217 H        1 ZINC000000897002    0.0700
32     H32     1.1151   -2.1610    0.7330 H        1 ZINC000000897002    0.0700
33     H33     2.5741   -4.3330   -0.8415 H        1 ZINC000000897002    0.0600
34     H34     0.9362   -4.4564   -0.1526 H        1 ZINC000000897002    0.0700
35     H35     0.8859   -3.8828   -2.5835 H        1 ZINC000000897002    0.0700
36     H36     0.1746   -2.5947   -1.5807 H        1 ZINC000000897002    0.0800
37     H37     2.1430   -2.8802   -4.9135 H        1 ZINC000000897002    0.4100
38     H38    -1.1233   -0.3827   -4.3573 H        1 ZINC000000897002    0.0900
39     H39    -1.9901   -1.5025   -5.4358 H        1 ZINC000000897002    0.0600
40     H40    -0.6579   -2.0997   -4.4176 H        1 ZINC000000897002    0.0600
41     H41    -1.4948    0.0164   -7.3376 H        1 ZINC000000897002    0.1300
42     H42     0.1043    0.5143   -9.1409 H        1 ZINC000000897002    0.1200
43     H43     2.4583   -0.1714   -8.9286 H        1 ZINC000000897002    0.1300
44     H44     4.2005   -0.6689   -6.4003 H        1 ZINC000000897002    0.0700
45     H45     3.6933   -2.3692   -6.2591 H        1 ZINC000000897002    0.0600
46     H46     4.0390   -1.6736   -7.8606 H        1 ZINC000000897002    0.0700
@<TRIPOS>BOND
1     1     2     1
2     1     22    1
3     1     23    1
4     1     24    1
5     2     3     1
6     2     25    1
7     2     26    1
8     3     4     1
9     3     27    1
10    3     28    1
11    4     9     1
12    4     5     1
13    5     6     1
14    5     29    1
15    5     30    1
16    6     7     1
17    6     31    1
18    6     32    1
19    7     8     1
20    7     33    1
21    7     34    1
22    8     9     1
23    8     35    1
24    8     36    1
25    9     10    1
26    9     11    1
27    11    12    2
28    11    13    am
29    13    14    1
30    13    37    1
31    14    20    ar
32    14    15    ar
33    15    16    1
34    15    17    ar
35    16    38    1
36    16    39    1
37    16    40    1
38    17    18    ar
39    17    41    1
40    18    19    ar
41    18    42    1
42    19    20    ar
43    19    43    1
44    20    21    1
45    21    44    1
46    21    45    1
47    21    46    1
@<TRIPOS>SUBSTRUCTURE
1   ZINC000000897002 1     RESIDUE    1   A     ZIN   1
