@<TRIPOS>MOLECULE
ZINC000096006009
  30   31    0    0    0
SMALL
USER_CHARGES
NO_NAME
@<TRIPOS>ATOM
    1 C1       -0.0184     1.5028     0.0103 C.3    1 <0>      -0.0600
    2 C2        0.0021    -0.0041     0.0020 C.2    1 <0>       0.0400
    3 N3        0.0084    -0.7779    -1.0473 N.2    1 <0>      -0.4200
    4 O4        0.0255    -1.9479    -0.7432 O.3    1 <0>      -0.0100
    5 C5        0.0330    -2.1093     0.5896 C.2    1 <0>       0.3100
    6 N6        0.0521    -3.3066     1.2805 N.pl3  1 <0>      -1.0200
    7 S7        0.0676    -4.7404     0.4521 S.o2   1 <0>       2.6100
    8 O8       -1.1839    -4.8323    -0.2146 O.2    1 <0>      -1.0200
    9 O9        1.3153    -4.7988    -0.2255 O.2    1 <0>      -1.0200
   10 C10       0.0902    -6.0337     1.6485 C.ar   1 <0>      -0.6700
   11 C11       1.2973    -6.5202     2.1159 C.ar   1 <0>       0.0200
   12 C12       1.3186    -7.5338     3.0536 C.ar   1 <0>      -0.2200
   13 C13       0.1256    -8.0648     3.5273 C.ar   1 <0>       0.2500
   14 N14       0.1435    -9.0897     4.4761 N.pl3  1 <0>      -0.8800
   15 C15      -1.0853    -7.5738     3.0557 C.ar   1 <0>      -0.2200
   16 C16      -1.0994    -6.5561     2.1222 C.ar   1 <0>       0.0200
   17 C17       0.0243    -0.8523     1.1263 C.2    1 <0>      -0.3300
   18 C18       0.0282    -0.4642     2.5825 C.3    1 <0>      -0.0300
   19 H19       1.0042     1.8801     0.0026 H      1 <0>       0.0700
   20 H20      -0.5455     1.8639    -0.8728 H      1 <0>       0.0600
   21 H21      -0.5286     1.8543     0.9071 H      1 <0>       0.0700
   22 H22       2.2245    -6.1072     1.7468 H      1 <0>       0.1400
   23 H23       2.2617    -7.9136     3.4179 H      1 <0>       0.1200
   24 H24       0.9896    -9.4315     4.8049 H      1 <0>       0.4000
   25 H25      -0.6903    -9.4597     4.8062 H      1 <0>       0.4000
   26 H26      -2.0146    -7.9846     3.4217 H      1 <0>       0.1200
   27 H27      -2.0404    -6.1739     1.7551 H      1 <0>       0.1400
   28 H28       1.0568    -0.3617     2.9284 H      1 <0>       0.0400
   29 H29      -0.4933     0.4848     2.7070 H      1 <0>       0.0400
   30 H30      -0.4760    -1.2351     3.1653 H      1 <0>       0.0600
@<TRIPOS>BOND
   1    1    2 1
   2    1   19 1
   3    1   20 1
   4    1   21 1
   5    2   17 1
   6    2    3 2
   7    3    4 1
   8    4    5 1
   9    5    6 1
  10    5   17 2
  11    6    7 1
  12    7    8 2
  13    7    9 2
  14    7   10 1
  15   10   16 ar
  16   10   11 ar
  17   11   12 ar
  18   11   22 1
  19   12   13 ar
  20   12   23 1
  21   13   14 1
  22   13   15 ar
  23   14   24 1
  24   14   25 1
  25   15   16 ar
  26   15   26 1
  27   16   27 1
  28   17   18 1
  29   18   28 1
  30   18   29 1
  31   18   30 1

@<TRIPOS>MOLECULE
ZINC000096006009
  31   32    0    0    0
SMALL
USER_CHARGES
NO_NAME
@<TRIPOS>ATOM
    1 C1       -0.0184     1.5028     0.0103 C.3    1 <0>      -0.0800
    2 C2        0.0021    -0.0041     0.0020 C.2    1 <0>       0.0500
    3 N3        0.0084    -0.7779    -1.0473 N.2    1 <0>      -0.3600
    4 O4        0.0255    -1.9479    -0.7432 O.3    1 <0>       0.0900
    5 C5        0.0330    -2.1093     0.5896 C.2    1 <0>       0.2100
    6 N6        0.0521    -3.3066     1.2805 N.am   1 <0>      -1.0000
    7 S7        0.0676    -4.7404     0.4521 S.o2   1 <0>       2.6800
    8 O8        0.1204    -5.7689     1.4312 O.2    1 <0>      -0.9400
    9 O9       -0.9596    -4.6501    -0.5256 O.2    1 <0>      -0.9300
   10 C10       1.5902    -4.8159    -0.4314 C.ar   1 <0>      -0.7400
   11 C11       1.6700    -4.3039    -1.7135 C.ar   1 <0>       0.0400
   12 C12       2.8619    -4.3614    -2.4088 C.ar   1 <0>      -0.2200
   13 C13       3.9813    -4.9344    -1.8188 C.ar   1 <0>       0.2700
   14 N14       5.1885    -4.9938    -2.5190 N.pl3  1 <0>      -0.8600
   15 C15       3.8977    -5.4477    -0.5307 C.ar   1 <0>      -0.2200
   16 C16       2.7042    -5.3819     0.1610 C.ar   1 <0>       0.0300
   17 C17       0.0243    -0.8523     1.1263 C.2    1 <0>      -0.2300
   18 C18       0.0282    -0.4642     2.5825 C.3    1 <0>      -0.0700
   19 H19       1.0042     1.8801     0.0026 H      1 <0>       0.0800
   20 H20      -0.5455     1.8639    -0.8728 H      1 <0>       0.0800
   21 H21      -0.5286     1.8543     0.9071 H      1 <0>       0.0800
   22 H22       0.0563    -3.3068     2.2505 H      1 <0>       0.4500
   23 H23       0.7992    -3.8588    -2.1717 H      1 <0>       0.1400
   24 H24       2.9234    -3.9616    -3.4102 H      1 <0>       0.1300
   25 H25       5.2457    -4.6347    -3.4182 H      1 <0>       0.4000
   26 H26       5.9695    -5.3941    -2.1060 H      1 <0>       0.4000
   27 H27       4.7661    -5.8942    -0.0693 H      1 <0>       0.1300
   28 H28       2.6385    -5.7808     1.1625 H      1 <0>       0.1400
   29 H29       1.0568    -0.3613     2.9283 H      1 <0>       0.0700
   30 H30      -0.4937     0.4846     2.7070 H      1 <0>       0.0800
   31 H31      -0.4756    -1.2353     3.1653 H      1 <0>       0.0700
@<TRIPOS>BOND
   1    1    2 1
   2    1   19 1
   3    1   20 1
   4    1   21 1
   5    2   17 1
   6    2    3 2
   7    3    4 1
   8    4    5 1
   9    5    6 1
  10    5   17 2
  11    6    7 am
  12    6   22 1
  13    7    8 2
  14    7    9 2
  15    7   10 1
  16   10   16 ar
  17   10   11 ar
  18   11   12 ar
  19   11   23 1
  20   12   13 ar
  21   12   24 1
  22   13   14 1
  23   13   15 ar
  24   14   25 1
  25   14   26 1
  26   15   16 ar
  27   15   27 1
  28   16   28 1
  29   17   18 1
  30   18   29 1
  31   18   30 1
  32   18   31 1
