@<TRIPOS>MOLECULE
ZINC000001530811
44    44    1     0     0
SMALL
USER_CHARGES
@<TRIPOS>ATOM
1      C1      0.2790    1.2398    0.8548 C.3      1 ZINC000001530811   -0.1600
2      C2      0.2808   -0.2862    0.7453 C.3      1 ZINC000001530811   -0.1200
3      C3      0.9502   -0.7026   -0.5659 C.3      1 ZINC000001530811   -0.1300
4      C4      0.9521   -2.2287   -0.6754 C.3      1 ZINC000001530811    0.1100
5      N5      1.5931   -2.6274   -1.9310 N.pl3    1 ZINC000001530811   -0.7300
6      C6      1.7125   -3.9743   -2.2533 C.ar     1 ZINC000001530811    0.2700
7      C7      1.2173   -4.9431   -1.3843 C.ar     1 ZINC000001530811   -0.2100
8      C8      1.3334   -6.2724   -1.6992 C.ar     1 ZINC000001530811    0.0100
9      C9      1.9502   -6.6550   -2.8947 C.ar     1 ZINC000001530811   -0.2100
10     C10     2.0763   -8.0830   -3.2366 C.2      1 ZINC000001530811    0.5200
11     O11     1.6443   -8.9295   -2.4795 O.2      1 ZINC000001530811   -0.5000
12     O12     2.6709   -8.4500   -4.3890 O.3      1 ZINC000001530811   -0.3700
13     C13     2.7601   -9.8735   -4.6605 C.3      1 ZINC000001530811    0.0300
14     C14     3.4605  -10.0938   -6.0028 C.3      1 ZINC000001530811    0.0000
15     N15     4.8421   -9.6015   -5.9208 N.4      1 ZINC000001530811   -0.3900
16     H16     4.8395   -8.6432   -5.6050 H        1 ZINC000001530811    0.4300
17     C17     5.6008  -10.4276   -4.9722 C.3      1 ZINC000001530811   -0.0500
18     C18     5.4689   -9.6782   -7.2472 C.3      1 ZINC000001530811   -0.0500
19     C19     2.4465   -5.6794   -3.7652 C.ar     1 ZINC000001530811   -0.0100
20     C20     2.3220   -4.3516   -3.4470 C.ar     1 ZINC000001530811   -0.2100
21     H21     1.3053    1.6065    0.8384 H        1 ZINC000001530811    0.0600
22     H22    -0.2718    1.6637    0.0151 H        1 ZINC000001530811    0.0600
23     H23    -0.1980    1.5365    1.7890 H        1 ZINC000001530811    0.0600
24     H24     0.8315   -0.7101    1.5850 H        1 ZINC000001530811    0.0700
25     H25    -0.7455   -0.6529    0.7617 H        1 ZINC000001530811    0.0700
26     H26     0.3995   -0.2788   -1.4056 H        1 ZINC000001530811    0.0700
27     H27     1.9766   -0.3359   -0.5823 H        1 ZINC000001530811    0.0700
28     H28     1.5028   -2.6526    0.1643 H        1 ZINC000001530811    0.0700
29     H29    -0.0743   -2.5954   -0.6590 H        1 ZINC000001530811    0.0700
30     H30     1.9342   -1.9515   -2.5374 H        1 ZINC000001530811    0.4100
31     H31     0.7414   -4.6470   -0.4611 H        1 ZINC000001530811    0.1400
32     H32     0.9494   -7.0233   -1.0246 H        1 ZINC000001530811    0.1400
33     H33     3.3306  -10.3594   -3.8690 H        1 ZINC000001530811    0.1000
34     H34     1.7575  -10.2995   -4.6997 H        1 ZINC000001530811    0.1200
35     H35     3.4674  -11.1579   -6.2388 H        1 ZINC000001530811    0.1500
36     H36     2.9275   -9.5519   -6.7841 H        1 ZINC000001530811    0.1400
37     H37     5.6037  -11.4628   -5.3133 H        1 ZINC000001530811    0.1300
38     H38     6.6260  -10.0623   -4.9113 H        1 ZINC000001530811    0.1300
39     H39     5.1358  -10.3706   -3.9880 H        1 ZINC000001530811    0.1200
40     H40     5.4647  -10.7123   -7.5917 H        1 ZINC000001530811    0.1200
41     H41     4.9105   -9.0591   -7.9493 H        1 ZINC000001530811    0.1200
42     H42     6.4965   -9.3202   -7.1847 H        1 ZINC000001530811    0.1300
43     H43     2.9233   -5.9715   -4.6892 H        1 ZINC000001530811    0.1300
44     H44     2.7048   -3.5976   -4.1189 H        1 ZINC000001530811    0.1300
@<TRIPOS>BOND
1     1     2     1
2     1     21    1
3     1     22    1
4     1     23    1
5     2     3     1
6     2     24    1
7     2     25    1
8     3     4     1
9     3     26    1
10    3     27    1
11    4     5     1
12    4     28    1
13    4     29    1
14    5     6     1
15    5     30    1
16    6     20    ar
17    6     7     ar
18    7     8     ar
19    7     31    1
20    8     9     ar
21    8     32    1
22    9     10    1
23    9     19    ar
24    10    11    2
25    10    12    1
26    12    13    1
27    13    14    1
28    13    33    1
29    13    34    1
30    14    15    1
31    14    35    1
32    14    36    1
33    15    16    1
34    15    17    1
35    15    18    1
36    17    37    1
37    17    38    1
38    17    39    1
39    18    40    1
40    18    41    1
41    18    42    1
42    19    20    ar
43    19    43    1
44    20    44    1
@<TRIPOS>SUBSTRUCTURE
1   ZINC000001530811 1     RESIDUE    1   A     ZIN   1

@<TRIPOS>MOLECULE
ZINC000001530811
43    43    1     0     0
SMALL
USER_CHARGES
@<TRIPOS>ATOM
1      C1     -0.0187    1.5258    0.0104 C.3      1 ZINC000001530811   -0.1500
2      C2      0.0021   -0.0041    0.0020 C.3      1 ZINC000001530811   -0.1200
3      C3     -1.4333   -0.5336    0.0129 C.3      1 ZINC000001530811   -0.1300
4      C4     -1.4126   -2.0635    0.0045 C.3      1 ZINC000001530811    0.1200
5      N5     -2.7870   -2.5706    0.0149 N.pl3    1 ZINC000001530811   -0.7400
6      C6     -3.0224   -3.9406    0.0098 C.ar     1 ZINC000001530811    0.2500
7      C7     -1.9508   -4.8295    0.0005 C.ar     1 ZINC000001530811   -0.2100
8      C8     -2.1795   -6.1814   -0.0046 C.ar     1 ZINC000001530811    0.0000
9      C9     -3.4910   -6.6671   -0.0004 C.ar     1 ZINC000001530811   -0.1900
10     C10    -3.7406   -8.1196   -0.0053 C.2      1 ZINC000001530811    0.5100
11     O11    -2.8063   -8.8966   -0.0130 O.2      1 ZINC000001530811   -0.5200
12     O12    -5.0049   -8.5860   -0.0013 O.3      1 ZINC000001530811   -0.3400
13     C13    -5.1756  -10.0280   -0.0066 C.3      1 ZINC000001530811    0.0700
14     C14    -6.6680  -10.3649   -0.0010 C.3      1 ZINC000001530811    0.0500
15     N15    -7.2805   -9.8965   -1.2513 N.3      1 ZINC000001530811   -0.5400
16     C16    -6.7583  -10.6416   -2.4047 C.3      1 ZINC000001530811    0.0200
17     C17    -8.7453   -9.9862   -1.1860 C.3      1 ZINC000001530811    0.0200
18     C18    -4.5651   -5.7715    0.0089 C.ar     1 ZINC000001530811   -0.0100
19     C19    -4.3293   -4.4208    0.0197 C.ar     1 ZINC000001530811   -0.2100
20     H20     1.0039    1.9031    0.0027 H        1 ZINC000001530811    0.0600
21     H21    -0.5459    1.8868   -0.8726 H        1 ZINC000001530811    0.0500
22     H22    -0.5289    1.8773    0.9072 H        1 ZINC000001530811    0.0500
23     H23     0.5123   -0.3556   -0.8948 H        1 ZINC000001530811    0.0700
24     H24     0.5293   -0.3651    0.8851 H        1 ZINC000001530811    0.0700
25     H25    -1.9435   -0.1821    0.9097 H        1 ZINC000001530811    0.0700
26     H26    -1.9605   -0.1726   -0.8702 H        1 ZINC000001530811    0.0700
27     H27    -0.9024   -2.4150   -0.8923 H        1 ZINC000001530811    0.0600
28     H28    -0.8854   -2.4246    0.8875 H        1 ZINC000001530811    0.0600
29     H29    -3.5327   -1.9503    0.0253 H        1 ZINC000001530811    0.4000
30     H30    -0.9382   -4.4537   -0.0031 H        1 ZINC000001530811    0.1300
31     H31    -1.3478   -6.8703   -0.0121 H        1 ZINC000001530811    0.1400
32     H32    -4.7122  -10.4454   -0.9005 H        1 ZINC000001530811    0.0700
33     H33    -4.7038  -10.4529    0.8794 H        1 ZINC000001530811    0.0800
34     H34    -6.7966  -11.4439    0.0847 H        1 ZINC000001530811    0.0600
35     H35    -7.1482   -9.8735    0.8452 H        1 ZINC000001530811    0.0900
36     H36    -6.9798  -11.7019   -2.2828 H        1 ZINC000001530811    0.0300
37     H37    -7.2283  -10.2748   -3.3172 H        1 ZINC000001530811    0.0700
38     H38    -5.6794  -10.5010   -2.4699 H        1 ZINC000001530811    0.0700
39     H39    -9.1108   -9.3692   -0.3652 H        1 ZINC000001530811    0.0700
40     H40    -9.1731   -9.6333   -2.1243 H        1 ZINC000001530811    0.0700
41     H41    -9.0387  -11.0228   -1.0199 H        1 ZINC000001530811    0.0300
42     H42    -5.5790   -6.1433    0.0121 H        1 ZINC000001530811    0.1400
43     H43    -5.1583   -3.7286    0.0272 H        1 ZINC000001530811    0.1300
@<TRIPOS>BOND
1     1     2     1
2     1     20    1
3     1     21    1
4     1     22    1
5     2     3     1
6     2     23    1
7     2     24    1
8     3     4     1
9     3     25    1
10    3     26    1
11    4     5     1
12    4     27    1
13    4     28    1
14    5     6     1
15    5     29    1
16    6     19    ar
17    6     7     ar
18    7     8     ar
19    7     30    1
20    8     9     ar
21    8     31    1
22    9     10    1
23    9     18    ar
24    10    11    2
25    10    12    1
26    12    13    1
27    13    14    1
28    13    32    1
29    13    33    1
30    14    15    1
31    14    34    1
32    14    35    1
33    15    16    1
34    15    17    1
35    16    36    1
36    16    37    1
37    16    38    1
38    17    39    1
39    17    40    1
40    17    41    1
41    18    19    ar
42    18    42    1
43    19    43    1
@<TRIPOS>SUBSTRUCTURE
1   ZINC000001530811 1     RESIDUE    1   A     ZIN   1
