@<TRIPOS>MOLECULE
ZINC000003842753
31    32    1     0     0
SMALL
USER_CHARGES
@<TRIPOS>ATOM
1      O1      0.0021   -0.0041    0.0020 O.2      1 ZINC000003842753   -0.4800
2      C2     -0.0144    1.2136    0.0087 C.2      1 ZINC000003842753    0.5700
3      N3     -1.1875    1.8781    0.0291 N.am     1 ZINC000003842753   -0.6500
4      C4     -1.2048    3.2239    0.0360 C.2      1 ZINC000003842753    0.7000
5      O5     -2.2701    3.8096    0.0540 O.2      1 ZINC000003842753   -0.5000
6      N6     -0.0598    3.9303    0.0237 N.am     1 ZINC000003842753   -0.5200
7      C7     -0.1103    5.3944    0.0321 C.3      1 ZINC000003842753    0.3000
8      H8      0.8944    5.8075    0.1217 H        1 ZINC000003842753    0.1300
9      C9     -0.7938    5.9163   -1.2512 C.3      1 ZINC000003842753   -0.2000
10     C10    -1.6118    7.1361   -0.7713 C.3      1 ZINC000003842753    0.0900
11     H11    -2.6750    6.9782   -0.9524 H        1 ZINC000003842753    0.0900
12     O12    -1.1655    8.3264   -1.4239 O.3      1 ZINC000003842753   -0.5500
13     C13    -1.3258    7.2069    0.7451 C.3      1 ZINC000003842753    0.0900
14     H14    -0.5082    7.8995    0.9451 H        1 ZINC000003842753    0.1000
15     C15    -2.5829    7.6348    1.5049 C.3      1 ZINC000003842753    0.0800
16     O16    -2.2681    7.8068    2.8882 O.3      1 ZINC000003842753   -0.5700
17     O17    -0.9447    5.8625    1.1140 O.3      1 ZINC000003842753   -0.3400
18     C18     1.1515    3.2940    0.0038 C.2      1 ZINC000003842753    0.2600
19     C19     1.1980    1.9446    0.0011 C.2      1 ZINC000003842753   -0.3700
20     C20     2.5226    1.2263   -0.0202 C.3      1 ZINC000003842753    0.5500
21     F21     2.8977    0.9010    1.2877 F        1 ZINC000003842753   -0.1700
22     F22     2.4059    0.0553   -0.7768 F        1 ZINC000003842753   -0.1600
23     F23     3.4937    2.0557   -0.5913 F        1 ZINC000003842753   -0.1800
24     H24    -2.0224    1.3842    0.0385 H        1 ZINC000003842753    0.4400
25     H25    -0.0473    6.2216   -1.9844 H        1 ZINC000003842753    0.1000
26     H26    -1.4526    5.1553   -1.6695 H        1 ZINC000003842753    0.1000
27     H27    -1.2677    8.3099   -2.3853 H        1 ZINC000003842753    0.3900
28     H28    -2.9516    8.5758    1.0965 H        1 ZINC000003842753    0.0700
29     H29    -3.3500    6.8676    1.3995 H        1 ZINC000003842753    0.0600
30     H30    -3.0202    8.0786    3.4319 H        1 ZINC000003842753    0.3900
31     H31     2.0660    3.8685   -0.0057 H        1 ZINC000003842753    0.2000
@<TRIPOS>BOND
1     1     2     2
2     2     19    1
3     2     3     am
4     3     4     am
5     3     24    1
6     4     5     2
7     4     6     am
8     6     7     1
9     6     18    1
10    7     8     1
11    7     17    1
12    7     9     1
13    9     10    1
14    9     25    1
15    9     26    1
16    10    11    1
17    10    12    1
18    10    13    1
19    12    27    1
20    13    14    1
21    13    15    1
22    13    17    1
23    15    16    1
24    15    28    1
25    15    29    1
26    16    30    1
27    18    19    2
28    18    31    1
29    19    20    1
30    20    21    1
31    20    22    1
32    20    23    1
@<TRIPOS>SUBSTRUCTURE
1   ZINC000003842753 1     RESIDUE    1   A     ZIN   1

@<TRIPOS>MOLECULE
ZINC000003842753
30    31    1     0     0
SMALL
USER_CHARGES
@<TRIPOS>ATOM
1      O1      0.0021   -0.0041    0.0020 O.2      1 ZINC000003842753   -0.5800
2      C2     -0.0144    1.2136    0.0087 C.2      1 ZINC000003842753    0.5300
3      N3     -1.1875    1.8781    0.0291 N.pl3    1 ZINC000003842753   -0.6800
4      C4     -1.2048    3.2239    0.0365 C.2      1 ZINC000003842753    0.6500
5      O5     -2.2701    3.8096    0.0549 O.2      1 ZINC000003842753   -0.5800
6      N6     -0.0598    3.9303    0.0241 N.am     1 ZINC000003842753   -0.5400
7      C7     -0.1103    5.3944    0.0331 C.3      1 ZINC000003842753    0.3000
8      H8      0.8945    5.8075    0.1226 H        1 ZINC000003842753    0.0900
9      C9     -0.7941    5.9167   -1.2499 C.3      1 ZINC000003842753   -0.1900
10     C10    -1.6120    7.1364   -0.7695 C.3      1 ZINC000003842753    0.0900
11     H11    -2.6752    6.9785   -0.9504 H        1 ZINC000003842753    0.0800
12     O12    -1.1657    8.3269   -1.4218 O.3      1 ZINC000003842753   -0.5600
13     C13    -1.3256    7.2066    0.7469 C.3      1 ZINC000003842753    0.0900
14     H14    -0.5080    7.8992    0.9470 H        1 ZINC000003842753    0.0900
15     C15    -2.5826    7.6343    1.5071 C.3      1 ZINC000003842753    0.0900
16     O16    -2.2675    7.8058    2.8903 O.3      1 ZINC000003842753   -0.5700
17     O17    -0.9445    5.8621    1.1153 O.3      1 ZINC000003842753   -0.3400
18     C18     1.1515    3.2940    0.0038 C.2      1 ZINC000003842753    0.2100
19     C19     1.1980    1.9446    0.0011 C.2      1 ZINC000003842753   -0.3800
20     C20     2.5226    1.2263   -0.0207 C.3      1 ZINC000003842753    0.5400
21     F21     2.8982    0.9010    1.2871 F        1 ZINC000003842753   -0.1900
22     F22     2.4056    0.0553   -0.7773 F        1 ZINC000003842753   -0.1700
23     F23     3.4935    2.0557   -0.5921 F        1 ZINC000003842753   -0.2000
24     H24    -0.0477    6.2223   -1.9832 H        1 ZINC000003842753    0.0900
25     H25    -1.4529    5.1559   -1.6684 H        1 ZINC000003842753    0.1000
26     H26    -1.2682    8.3106   -2.3832 H        1 ZINC000003842753    0.3800
27     H27    -2.9514    8.5754    1.0991 H        1 ZINC000003842753    0.0600
28     H28    -3.3497    6.8672    1.4016 H        1 ZINC000003842753    0.0600
29     H29    -3.0195    8.0775    3.4343 H        1 ZINC000003842753    0.3800
30     H30     2.0660    3.8685   -0.0056 H        1 ZINC000003842753    0.1500
@<TRIPOS>BOND
1     1     2     2
2     2     19    1
3     2     3     1
4     3     4     1
5     4     5     2
6     4     6     am
7     6     7     1
8     6     18    1
9     7     8     1
10    7     17    1
11    7     9     1
12    9     10    1
13    9     24    1
14    9     25    1
15    10    11    1
16    10    12    1
17    10    13    1
18    12    26    1
19    13    14    1
20    13    15    1
21    13    17    1
22    15    16    1
23    15    27    1
24    15    28    1
25    16    29    1
26    18    19    2
27    18    30    1
28    19    20    1
29    20    21    1
30    20    22    1
31    20    23    1
@<TRIPOS>SUBSTRUCTURE
1   ZINC000003842753 1     RESIDUE    1   A     ZIN   1
