@<TRIPOS>MOLECULE
ZINC000000010163
31    33    1     0     0
SMALL
USER_CHARGES
@<TRIPOS>ATOM
1      C1     -0.0187    1.5258    0.0104 C.3      1 ZINC000000010163   -0.1400
2      C2      0.0021   -0.0041    0.0020 C.3      1 ZINC000000010163    0.1400
3      H3      0.5185   -0.3831   -0.8799 H        1 ZINC000000010163    0.1100
4      O4     -1.3385   -0.5456    0.0960 O.3      1 ZINC000000010163   -0.3500
5      C5     -1.3459   -1.9097    0.5145 C.3      1 ZINC000000010163    0.1000
6      C6     -0.1989   -2.2400    1.4963 C.3      1 ZINC000000010163   -0.1100
7      S7      0.7527   -0.6671    1.5479 S.3      1 ZINC000000010163   -0.2600
8      C8     -2.6792   -2.2238    1.2029 C.3      1 ZINC000000010163    0.0000
9      N9     -3.3732   -3.2953    0.4855 N.4      1 ZINC000000010163   -0.3700
10     H10    -4.2384   -3.4923    0.9660 H        1 ZINC000000010163    0.4300
11     C11    -3.6885   -2.8782   -0.8829 C.3      1 ZINC000000010163   -0.0100
12     C12    -2.3980   -2.5693   -1.6452 C.3      1 ZINC000000010163   -0.1300
13     C13    -1.2019   -2.8168   -0.7177 C.3      1 ZINC000000010163   -0.1200
14     C14    -1.2462   -4.2764   -0.2471 C.3      1 ZINC000000010163   -0.1400
15     C15    -2.5647   -4.5162    0.4692 C.3      1 ZINC000000010163   -0.0100
16     H16     1.0039    1.9031    0.0027 H        1 ZINC000000010163    0.0900
17     H17    -0.5459    1.8868   -0.8726 H        1 ZINC000000010163    0.0900
18     H18    -0.5289    1.8773    0.9072 H        1 ZINC000000010163    0.0800
19     H19    -0.5929   -2.4866    2.4823 H        1 ZINC000000010163    0.1200
20     H20     0.4181   -3.0519    1.1112 H        1 ZINC000000010163    0.1200
21     H21    -2.4911   -2.5385    2.2293 H        1 ZINC000000010163    0.1400
22     H22    -3.3027   -1.3297    1.2089 H        1 ZINC000000010163    0.1500
23     H23    -4.2258   -3.6791   -1.3907 H        1 ZINC000000010163    0.1300
24     H24    -4.3142   -1.9861   -0.8543 H        1 ZINC000000010163    0.1300
25     H25    -2.3245   -3.2193   -2.5171 H        1 ZINC000000010163    0.1000
26     H26    -2.4030   -1.5270   -1.9642 H        1 ZINC000000010163    0.1100
27     H27    -0.2691   -2.6009   -1.2386 H        1 ZINC000000010163    0.1200
28     H28    -1.1751   -4.9404   -1.1086 H        1 ZINC000000010163    0.1100
29     H29    -0.4156   -4.4665    0.4327 H        1 ZINC000000010163    0.1100
30     H30    -2.3677   -4.8193    1.4976 H        1 ZINC000000010163    0.1300
31     H31    -3.1142   -5.3079   -0.0402 H        1 ZINC000000010163    0.1400
@<TRIPOS>BOND
1     1     2     1
2     1     16    1
3     1     17    1
4     1     18    1
5     2     3     1
6     2     7     1
7     2     4     1
8     4     5     1
9     5     13    1
10    5     6     1
11    5     8     1
12    6     7     1
13    6     19    1
14    6     20    1
15    8     9     1
16    8     21    1
17    8     22    1
18    9     10    1
19    9     15    1
20    9     11    1
21    11    12    1
22    11    23    1
23    11    24    1
24    12    13    1
25    12    25    1
26    12    26    1
27    13    14    1
28    13    27    1
29    14    15    1
30    14    28    1
31    14    29    1
32    15    30    1
33    15    31    1
@<TRIPOS>SUBSTRUCTURE
1   ZINC000000010163 1     RESIDUE    1   A     ZIN   1

@<TRIPOS>MOLECULE
ZINC000000010163
30    32    1     0     0
SMALL
USER_CHARGES
@<TRIPOS>ATOM
1      C1     -0.0187    1.5258    0.0104 C.3      1 ZINC000000010163   -0.1400
2      C2      0.0021   -0.0041    0.0020 C.3      1 ZINC000000010163    0.1400
3      H3      0.5184   -0.3831   -0.8799 H        1 ZINC000000010163    0.0900
4      O4     -1.3384   -0.5457    0.0962 O.3      1 ZINC000000010163   -0.3500
5      C5     -1.3448   -1.9105    0.5133 C.3      1 ZINC000000010163    0.0800
6      C6     -0.1987   -2.2406    1.4958 C.3      1 ZINC000000010163   -0.0800
7      S7      0.7524   -0.6672    1.5480 S.3      1 ZINC000000010163   -0.3100
8      C8     -2.6798   -2.2243    1.2005 C.3      1 ZINC000000010163    0.0700
9      N9     -3.3769   -3.2778    0.4514 N.3      1 ZINC000000010163   -0.5200
10     C10    -3.6853   -2.8389   -0.9164 C.3      1 ZINC000000010163    0.0500
11     C11    -2.3801   -2.5473   -1.6620 C.3      1 ZINC000000010163   -0.1400
12     C12    -1.2002   -2.8153   -0.7197 C.3      1 ZINC000000010163   -0.1000
13     C13    -1.2595   -4.2778   -0.2623 C.3      1 ZINC000000010163   -0.1500
14     C14    -2.5971   -4.5231    0.4415 C.3      1 ZINC000000010163    0.0500
15     H15     1.0039    1.9031    0.0027 H        1 ZINC000000010163    0.0800
16     H16    -0.5459    1.8868   -0.8726 H        1 ZINC000000010163    0.0800
17     H17    -0.5289    1.8773    0.9072 H        1 ZINC000000010163    0.0800
18     H18    -0.5933   -2.4873    2.4814 H        1 ZINC000000010163    0.1100
19     H19     0.4188   -3.0522    1.1110 H        1 ZINC000000010163    0.1000
20     H20    -2.4934   -2.5649    2.2190 H        1 ZINC000000010163    0.0900
21     H21    -3.2967   -1.3260    1.2243 H        1 ZINC000000010163    0.0900
22     H22    -4.2330   -3.6251   -1.4359 H        1 ZINC000000010163    0.0800
23     H23    -4.2931   -1.9348   -0.8800 H        1 ZINC000000010163    0.0800
24     H24    -2.3052   -3.1962   -2.5346 H        1 ZINC000000010163    0.0700
25     H25    -2.3653   -1.5042   -1.9781 H        1 ZINC000000010163    0.0700
26     H26    -0.2591   -2.6076   -1.2289 H        1 ZINC000000010163    0.0800
27     H27    -1.1767   -4.9348   -1.1281 H        1 ZINC000000010163    0.0700
28     H28    -0.4410   -4.4774    0.4293 H        1 ZINC000000010163    0.0700
29     H29    -2.4149   -4.8464    1.4664 H        1 ZINC000000010163    0.0800
30     H30    -3.1520   -5.2956   -0.0909 H        1 ZINC000000010163    0.0800
@<TRIPOS>BOND
1     1     2     1
2     1     15    1
3     1     16    1
4     1     17    1
5     2     3     1
6     2     7     1
7     2     4     1
8     4     5     1
9     5     12    1
10    5     6     1
11    5     8     1
12    6     7     1
13    6     18    1
14    6     19    1
15    8     9     1
16    8     20    1
17    8     21    1
18    9     14    1
19    9     10    1
20    10    11    1
21    10    22    1
22    10    23    1
23    11    12    1
24    11    24    1
25    11    25    1
26    12    13    1
27    12    26    1
28    13    14    1
29    13    27    1
30    13    28    1
31    14    29    1
32    14    30    1
@<TRIPOS>SUBSTRUCTURE
1   ZINC000000010163 1     RESIDUE    1   A     ZIN   1
