@<TRIPOS>MOLECULE
ZINC000000057464
31    32    1     0     0
SMALL
USER_CHARGES
@<TRIPOS>ATOM
1      C1     -0.0187    1.5258    0.0104 C.3      1 ZINC000000057464   -0.1500
2      C2      0.0021   -0.0041    0.0020 C.3      1 ZINC000000057464   -0.1100
3      C3     -1.4117   -0.5257    0.0127 C.ar     1 ZINC000000057464    0.2500
4      N4     -1.9972   -0.8519    1.1536 N.ar     1 ZINC000000057464   -0.5700
5      H5     -1.5088   -0.7531    1.9859 H        1 ZINC000000057464    0.4400
6      C6     -3.2403   -1.3110    1.1775 C.ar     1 ZINC000000057464    0.6700
7      N7     -3.8118   -1.6384    2.3941 N.pl3    1 ZINC000000057464   -0.7900
8      N8     -3.9517   -1.4651    0.0708 N.ar     1 ZINC000000057464   -0.5700
9      C9     -3.4370   -1.1610   -1.1150 C.ar     1 ZINC000000057464    0.5400
10     N10    -4.1834   -1.3235   -2.2685 N.pl3    1 ZINC000000057464   -0.7700
11     C11    -2.1215   -0.6653   -1.1780 C.ar     1 ZINC000000057464   -0.1900
12     C12    -1.5030   -0.3117   -2.4784 C.ar     1 ZINC000000057464   -0.0600
13     C13    -0.4071   -1.0323   -2.9506 C.ar     1 ZINC000000057464   -0.0800
14     C14     0.1645   -0.6996   -4.1616 C.ar     1 ZINC000000057464   -0.1000
15     C15    -0.3485    0.3479   -4.9073 C.ar     1 ZINC000000057464   -0.0200
16     Cl16    0.3752    0.7615   -6.4301 Cl       1 ZINC000000057464   -0.0400
17     C17    -1.4370    1.0665   -4.4431 C.ar     1 ZINC000000057464   -0.1000
18     C18    -2.0190    0.7387   -3.2357 C.ar     1 ZINC000000057464   -0.0900
19     H19     1.0039    1.9031    0.0027 H        1 ZINC000000057464    0.0900
20     H20    -0.5459    1.8868   -0.8726 H        1 ZINC000000057464    0.0700
21     H21    -0.5289    1.8773    0.9072 H        1 ZINC000000057464    0.0600
22     H22     0.5123   -0.3556   -0.8948 H        1 ZINC000000057464    0.1200
23     H23     0.5293   -0.3651    0.8851 H        1 ZINC000000057464    0.1100
24     H24    -3.3037   -1.5308    3.2133 H        1 ZINC000000057464    0.4300
25     H25    -4.7207   -1.9756    2.4279 H        1 ZINC000000057464    0.4500
26     H26    -5.0908   -1.6621   -2.2153 H        1 ZINC000000057464    0.4300
27     H27    -3.7993   -1.0988   -3.1304 H        1 ZINC000000057464    0.4300
28     H28    -0.0059   -1.8495   -2.3694 H        1 ZINC000000057464    0.1400
29     H29     1.0138   -1.2570   -4.5281 H        1 ZINC000000057464    0.1500
30     H30    -1.8337    1.8826   -5.0288 H        1 ZINC000000057464    0.1500
31     H31    -2.8683    1.2996   -2.8745 H        1 ZINC000000057464    0.1400
@<TRIPOS>BOND
1     1     2     1
2     1     19    1
3     1     20    1
4     1     21    1
5     2     3     1
6     2     22    1
7     2     23    1
8     3     11    ar
9     3     4     ar
10    4     5     1
11    4     6     ar
12    6     7     1
13    6     8     ar
14    7     24    1
15    7     25    1
16    8     9     ar
17    9     10    1
18    9     11    ar
19    10    26    1
20    10    27    1
21    11    12    1
22    12    18    ar
23    12    13    ar
24    13    14    ar
25    13    28    1
26    14    15    ar
27    14    29    1
28    15    16    1
29    15    17    ar
30    17    18    ar
31    17    30    1
32    18    31    1
@<TRIPOS>SUBSTRUCTURE
1   ZINC000000057464 1     RESIDUE    1   A     ZIN   1

@<TRIPOS>MOLECULE
ZINC000000057464
30    31    1     0     0
SMALL
USER_CHARGES
@<TRIPOS>ATOM
1      C1     -0.0187    1.5258    0.0104 C.3      1 ZINC000000057464   -0.1400
2      C2      0.0021   -0.0041    0.0020 C.3      1 ZINC000000057464   -0.0800
3      C3     -1.4117   -0.5257    0.0127 C.ar     1 ZINC000000057464    0.2700
4      N4     -2.0316   -0.7586    1.1583 N.ar     1 ZINC000000057464   -0.6000
5      C5     -3.2750   -1.2169    1.1822 C.ar     1 ZINC000000057464    0.6100
6      N6     -3.8830   -1.4453    2.4037 N.pl3    1 ZINC000000057464   -0.8200
7      N7     -3.9528   -1.4623    0.0709 N.ar     1 ZINC000000057464   -0.6300
8      C8     -3.4024   -1.2549   -1.1198 C.ar     1 ZINC000000057464    0.5000
9      N9     -4.1137   -1.5125   -2.2781 N.pl3    1 ZINC000000057464   -0.8300
10     C10    -2.0853   -0.7635   -1.1834 C.ar     1 ZINC000000057464   -0.2900
11     C11    -1.4277   -0.5158   -2.4892 C.ar     1 ZINC000000057464   -0.0100
12     C12    -0.3186   -1.2705   -2.8680 C.ar     1 ZINC000000057464   -0.1000
13     C13     0.2894   -1.0364   -4.0844 C.ar     1 ZINC000000057464   -0.1000
14     C14    -0.2004   -0.0540   -4.9280 C.ar     1 ZINC000000057464   -0.0400
15     Cl15    0.5691    0.2355   -6.4570 Cl       1 ZINC000000057464   -0.0700
16     C16    -1.3019    0.6979   -4.5567 C.ar     1 ZINC000000057464   -0.1000
17     C17    -1.9201    0.4685   -3.3446 C.ar     1 ZINC000000057464   -0.1100
18     H18     1.0039    1.9031    0.0027 H        1 ZINC000000057464    0.0700
19     H19    -0.5459    1.8868   -0.8726 H        1 ZINC000000057464    0.0600
20     H20    -0.5289    1.8773    0.9072 H        1 ZINC000000057464    0.0600
21     H21     0.5123   -0.3556   -0.8948 H        1 ZINC000000057464    0.0900
22     H22     0.5293   -0.3651    0.8851 H        1 ZINC000000057464    0.0900
23     H23    -3.3997   -1.2701    3.2263 H        1 ZINC000000057464    0.4200
24     H24    -4.7926   -1.7806    2.4375 H        1 ZINC000000057464    0.4100
25     H25    -5.0224   -1.8476   -2.2248 H        1 ZINC000000057464    0.4100
26     H26    -3.7038   -1.3580   -3.1435 H        1 ZINC000000057464    0.4100
27     H27     0.0644   -2.0368   -2.2104 H        1 ZINC000000057464    0.1300
28     H28     1.1490   -1.6202   -4.3786 H        1 ZINC000000057464    0.1400
29     H29    -1.6803    1.4629   -5.2186 H        1 ZINC000000057464    0.1400
30     H30    -2.7796    1.0554   -3.0561 H        1 ZINC000000057464    0.1300
@<TRIPOS>BOND
1     1     2     1
2     1     18    1
3     1     19    1
4     1     20    1
5     2     3     1
6     2     21    1
7     2     22    1
8     3     10    ar
9     3     4     ar
10    4     5     ar
11    5     6     1
12    5     7     ar
13    6     23    1
14    6     24    1
15    7     8     ar
16    8     9     1
17    8     10    ar
18    9     25    1
19    9     26    1
20    10    11    1
21    11    17    ar
22    11    12    ar
23    12    13    ar
24    12    27    1
25    13    14    ar
26    13    28    1
27    14    15    1
28    14    16    ar
29    16    17    ar
30    16    29    1
31    17    30    1
@<TRIPOS>SUBSTRUCTURE
1   ZINC000000057464 1     RESIDUE    1   A     ZIN   1
