@<TRIPOS>MOLECULE
ZINC000001530981
48    49    1     0     0
SMALL
USER_CHARGES
@<TRIPOS>ATOM
1      C1      0.2771    1.5487   -0.0164 C.3      1 ZINC000001530981   -0.0500
2      N2      0.0740    0.0939   -0.0077 N.4      1 ZINC000001530981   -0.3900
3      H3     -0.9108   -0.1077    0.0795 H        1 ZINC000001530981    0.4200
4      C4      0.7967   -0.4947    1.1278 C.3      1 ZINC000001530981    0.0400
5      C5      0.1939   -0.0003    2.4175 C.2      1 ZINC000001530981   -0.2300
6      C6     -0.2304   -0.8694    3.3287 C.2      1 ZINC000001530981    0.0600
7      C7     -0.8031   -0.3996    4.5542 C.1      1 ZINC000001530981   -0.2100
8      C8     -1.2726   -0.0144    5.5589 C.1      1 ZINC000001530981   -0.0700
9      C9     -1.8613    0.4685    6.8187 C.3      1 ZINC000001530981    0.0300
10     C10    -2.2641   -0.7268    7.6846 C.3      1 ZINC000001530981   -0.1400
11     C11    -0.8339    1.3185    7.5689 C.3      1 ZINC000001530981   -0.1400
12     C12    -3.0978    1.3158    6.5120 C.3      1 ZINC000001530981   -0.1400
13     C13     0.5820   -0.4790   -1.2614 C.3      1 ZINC000001530981    0.0400
14     C14    -0.2508    0.0185   -2.4147 C.ar     1 ZINC000001530981   -0.1600
15     C15    -1.5416   -0.4945   -2.6266 C.ar     1 ZINC000001530981   -0.0300
16     C16    -2.0861   -1.4740   -1.7785 C.ar     1 ZINC000001530981   -0.1500
17     C17    -3.3400   -1.9472   -2.0145 C.ar     1 ZINC000001530981   -0.0800
18     C18    -4.0952   -1.4755   -3.0868 C.ar     1 ZINC000001530981   -0.1200
19     C19    -3.6007   -0.5279   -3.9291 C.ar     1 ZINC000001530981   -0.0800
20     C20    -2.3098   -0.0143   -3.7169 C.ar     1 ZINC000001530981   -0.0600
21     C21    -1.7655    0.9650   -4.5646 C.ar     1 ZINC000001530981   -0.0600
22     C22    -0.5117    1.4394   -4.3279 C.ar     1 ZINC000001530981   -0.1300
23     C23     0.2415    0.9711   -3.2532 C.ar     1 ZINC000001530981   -0.0600
24     H24     1.3451    1.7664   -0.0243 H        1 ZINC000001530981    0.1200
25     H25    -0.1872    1.9751   -0.9056 H        1 ZINC000001530981    0.1200
26     H26    -0.1758    1.9841    0.8743 H        1 ZINC000001530981    0.1200
27     H27     0.7197   -1.5811    1.0838 H        1 ZINC000001530981    0.1300
28     H28     1.8458   -0.2026    1.0816 H        1 ZINC000001530981    0.1400
29     H29     0.1069    1.0604    2.6012 H        1 ZINC000001530981    0.1400
30     H30    -0.1433   -1.9300    3.1450 H        1 ZINC000001530981    0.1400
31     H31    -1.3832   -1.3305    7.9031 H        1 ZINC000001530981    0.0600
32     H32    -2.7000   -0.3693    8.6175 H        1 ZINC000001530981    0.0700
33     H33    -2.9961   -1.3324    7.1502 H        1 ZINC000001530981    0.0600
34     H34    -0.5469    2.1701    6.9520 H        1 ZINC000001530981    0.0600
35     H35    -1.2698    1.6761    8.5018 H        1 ZINC000001530981    0.0800
36     H36     0.0470    0.7149    7.7874 H        1 ZINC000001530981    0.0600
37     H37    -3.8298    0.7102    5.9775 H        1 ZINC000001530981    0.0600
38     H38    -3.5338    1.6734    7.4448 H        1 ZINC000001530981    0.0700
39     H39    -2.8109    2.1674    5.8951 H        1 ZINC000001530981    0.0600
40     H40     1.6192   -0.1764   -1.4051 H        1 ZINC000001530981    0.1400
41     H41     0.5240   -1.5664   -1.2137 H        1 ZINC000001530981    0.1400
42     H42    -1.5123   -1.8494   -0.9441 H        1 ZINC000001530981    0.1200
43     H43    -3.7561   -2.6999   -1.3612 H        1 ZINC000001530981    0.1300
44     H44    -5.0877   -1.8682   -3.2520 H        1 ZINC000001530981    0.1300
45     H45    -4.1972   -0.1724   -4.7563 H        1 ZINC000001530981    0.1400
46     H46    -2.3387    1.3391   -5.4000 H        1 ZINC000001530981    0.1400
47     H47    -0.0956    2.1919   -4.9813 H        1 ZINC000001530981    0.1400
48     H48     1.2336    1.3644   -3.0875 H        1 ZINC000001530981    0.1300
@<TRIPOS>BOND
1     1     2     1
2     1     24    1
3     1     25    1
4     1     26    1
5     2     3     1
6     2     4     1
7     2     13    1
8     4     5     1
9     4     27    1
10    4     28    1
11    5     6     2
12    5     29    1
13    6     7     1
14    6     30    1
15    7     8     3
16    8     9     1
17    9     10    1
18    9     11    1
19    9     12    1
20    10    31    1
21    10    32    1
22    10    33    1
23    11    34    1
24    11    35    1
25    11    36    1
26    12    37    1
27    12    38    1
28    12    39    1
29    13    14    1
30    13    40    1
31    13    41    1
32    14    23    ar
33    14    15    ar
34    15    20    ar
35    15    16    ar
36    16    17    ar
37    16    42    1
38    17    18    ar
39    17    43    1
40    18    19    ar
41    18    44    1
42    19    20    ar
43    19    45    1
44    20    21    ar
45    21    22    ar
46    21    46    1
47    22    23    ar
48    22    47    1
49    23    48    1
@<TRIPOS>SUBSTRUCTURE
1   ZINC000001530981 1     RESIDUE    1   A     ZIN   1

@<TRIPOS>MOLECULE
ZINC000001530981
48    49    1     0     0
SMALL
USER_CHARGES
@<TRIPOS>ATOM
1      C1     -0.0178    1.4648    0.0101 C.3      1 ZINC000001530981   -0.0500
2      N2      0.0021   -0.0041    0.0020 N.4      1 ZINC000001530981   -0.3900
3      H3     -0.9445   -0.3533    0.0092 H        1 ZINC000001530981    0.4200
4      C4      0.6897   -0.4778   -1.2066 C.3      1 ZINC000001530981    0.0300
5      C5     -0.1057   -0.0832   -2.4243 C.2      1 ZINC000001530981   -0.2300
6      C6      0.4705    0.6162   -3.3962 C.2      1 ZINC000001530981    0.0500
7      C7     -0.2852    0.9911   -4.5533 C.1      1 ZINC000001530981   -0.2100
8      C8     -0.9048    1.2986   -5.5019 C.1      1 ZINC000001530981   -0.0700
9      C9     -1.6817    1.6840   -6.6913 C.3      1 ZINC000001530981    0.0300
10     C10    -0.7891    2.4762   -7.6487 C.3      1 ZINC000001530981   -0.1400
11     C11    -2.1945    0.4261   -7.3952 C.3      1 ZINC000001530981   -0.1400
12     C12    -2.8689    2.5505   -6.2663 C.3      1 ZINC000001530981   -0.1400
13     C13     0.7126   -0.4907    1.1921 C.3      1 ZINC000001530981    0.0400
14     C14    -0.0593   -0.1093    2.4290 C.ar     1 ZINC000001530981   -0.1600
15     C15    -1.1691   -0.8710    2.8318 C.ar     1 ZINC000001530981   -0.0300
16     C16    -1.5852   -1.9973    2.1013 C.ar     1 ZINC000001530981   -0.1500
17     C17    -2.6646   -2.7115    2.5219 C.ar     1 ZINC000001530981   -0.0800
18     C18    -3.3666   -2.3430    3.6682 C.ar     1 ZINC000001530981   -0.1200
19     C19    -2.9931   -1.2584    4.4003 C.ar     1 ZINC000001530981   -0.0800
20     C20    -1.8827   -0.4966    3.9978 C.ar     1 ZINC000001530981   -0.0600
21     C21    -1.4667    0.6293    4.7282 C.ar     1 ZINC000001530981   -0.0600
22     C22    -0.3862    1.3429    4.3083 C.ar     1 ZINC000001530981   -0.1300
23     C23     0.3184    0.9719    3.1649 C.ar     1 ZINC000001530981   -0.0600
24     H24     1.0047    1.8421    0.0024 H        1 ZINC000001530981    0.1200
25     H25    -0.5450    1.8259   -0.8730 H        1 ZINC000001530981    0.1200
26     H26    -0.5280    1.8163    0.9069 H        1 ZINC000001530981    0.1200
27     H27     1.6817   -0.0294   -1.2596 H        1 ZINC000001530981    0.1300
28     H28     0.7830   -1.5632   -1.1697 H        1 ZINC000001530981    0.1400
29     H29    -1.1439   -0.3688   -2.5070 H        1 ZINC000001530981    0.1400
30     H30     1.5087    0.9018   -3.3134 H        1 ZINC000001530981    0.1400
31     H31     0.0567    1.8589   -7.9515 H        1 ZINC000001530981    0.0600
32     H32    -1.3643    2.7616   -8.5295 H        1 ZINC000001530981    0.0700
33     H33    -0.4237    3.3723   -7.1473 H        1 ZINC000001530981    0.0600
34     H34    -2.8304   -0.1383   -6.7131 H        1 ZINC000001530981    0.0600
35     H35    -2.7698    0.7115   -8.2759 H        1 ZINC000001530981    0.0700
36     H36    -1.3487   -0.1912   -7.6980 H        1 ZINC000001530981    0.0600
37     H37    -2.5035    3.4467   -5.7648 H        1 ZINC000001530981    0.0600
38     H38    -3.4441    2.8359   -7.1470 H        1 ZINC000001530981    0.0800
39     H39    -3.5048    1.9862   -5.5842 H        1 ZINC000001530981    0.0600
40     H40     0.8051   -1.5756    1.1418 H        1 ZINC000001530981    0.1400
41     H41     1.7055   -0.0428    1.2310 H        1 ZINC000001530981    0.1400
42     H42    -1.0513   -2.2943    1.2107 H        1 ZINC000001530981    0.1200
43     H43    -2.9822   -3.5766    1.9587 H        1 ZINC000001530981    0.1300
44     H44    -4.2201   -2.9268    3.9799 H        1 ZINC000001530981    0.1300
45     H45    -3.5471   -0.9844    5.2860 H        1 ZINC000001530981    0.1400
46     H46    -2.0016    0.9272    5.6179 H        1 ZINC000001530981    0.1400
47     H47    -0.0687    2.2081    4.8713 H        1 ZINC000001530981    0.1400
48     H48     1.1723    1.5551    2.8536 H        1 ZINC000001530981    0.1300
@<TRIPOS>BOND
1     1     2     1
2     1     24    1
3     1     25    1
4     1     26    1
5     2     3     1
6     2     4     1
7     2     13    1
8     4     5     1
9     4     27    1
10    4     28    1
11    5     6     2
12    5     29    1
13    6     7     1
14    6     30    1
15    7     8     3
16    8     9     1
17    9     10    1
18    9     11    1
19    9     12    1
20    10    31    1
21    10    32    1
22    10    33    1
23    11    34    1
24    11    35    1
25    11    36    1
26    12    37    1
27    12    38    1
28    12    39    1
29    13    14    1
30    13    40    1
31    13    41    1
32    14    23    ar
33    14    15    ar
34    15    20    ar
35    15    16    ar
36    16    17    ar
37    16    42    1
38    17    18    ar
39    17    43    1
40    18    19    ar
41    18    44    1
42    19    20    ar
43    19    45    1
44    20    21    ar
45    21    22    ar
46    21    46    1
47    22    23    ar
48    22    47    1
49    23    48    1
@<TRIPOS>SUBSTRUCTURE
1   ZINC000001530981 1     RESIDUE    1   A     ZIN   1

@<TRIPOS>MOLECULE
ZINC000001530981
47    48    1     0     0
SMALL
USER_CHARGES
@<TRIPOS>ATOM
1      C1     -0.0178    1.4648    0.0101 C.3      1 ZINC000001530981    0.0200
2      N2      0.0021   -0.0041    0.0020 N.3      1 ZINC000001530981   -0.5300
3      C3      0.7062   -0.5275    1.1802 C.3      1 ZINC000001530981    0.0800
4      C4      2.1628   -0.1488    1.1043 C.2      1 ZINC000001530981   -0.1100
5      C5      2.7314    0.5094    2.1089 C.2      1 ZINC000001530981   -0.0600
6      C6      4.1156    0.8692    2.0367 C.1      1 ZINC000001530981   -0.1600
7      C7      5.2504    1.1643    1.9776 C.1      1 ZINC000001530981   -0.1500
8      C8      6.6732    1.5342    1.9034 C.3      1 ZINC000001530981    0.0400
9      C9      7.0739    2.2781    3.1789 C.3      1 ZINC000001530981   -0.1400
10     C10     7.5223    0.2693    1.7626 C.3      1 ZINC000001530981   -0.1400
11     C11     6.9022    2.4398    0.6916 C.3      1 ZINC000001530981   -0.1400
12     C12    -1.3597   -0.5486   -0.0825 C.3      1 ZINC000001530981    0.0900
13     C13    -1.9618   -0.1908   -1.4168 C.ar     1 ZINC000001530981   -0.0600
14     C14    -1.6371   -0.9384   -2.5613 C.ar     1 ZINC000001530981   -0.0300
15     C15    -0.7524   -2.0284   -2.4944 C.ar     1 ZINC000001530981   -0.0900
16     C16    -0.4615   -2.7297   -3.6238 C.ar     1 ZINC000001530981   -0.1200
17     C17    -1.0277   -2.3836   -4.8495 C.ar     1 ZINC000001530981   -0.1100
18     C18    -1.8881   -1.3342   -4.9526 C.ar     1 ZINC000001530981   -0.1100
19     C19    -2.2134   -0.5867   -3.8077 C.ar     1 ZINC000001530981   -0.0500
20     C20    -3.0979    0.5029   -3.8746 C.ar     1 ZINC000001530981   -0.1100
21     C21    -3.3900    1.2037   -2.7447 C.ar     1 ZINC000001530981   -0.1200
22     C22    -2.8275    0.8548   -1.5186 C.ar     1 ZINC000001530981   -0.1100
23     H23     1.0047    1.8421    0.0024 H        1 ZINC000001530981    0.0700
24     H24    -0.5450    1.8259   -0.8730 H        1 ZINC000001530981    0.0700
25     H25    -0.5280    1.8163    0.9069 H        1 ZINC000001530981    0.0300
26     H26     0.2673   -0.1040    2.0837 H        1 ZINC000001530981    0.0400
27     H27     0.6139   -1.6133    1.2060 H        1 ZINC000001530981    0.0900
28     H28     2.7446   -0.4123    0.2334 H        1 ZINC000001530981    0.1200
29     H29     2.1496    0.7729    2.9798 H        1 ZINC000001530981    0.1300
30     H30     6.9107    1.6330    4.0422 H        1 ZINC000001530981    0.0600
31     H31     8.1275    2.5520    3.1240 H        1 ZINC000001530981    0.0700
32     H32     6.4689    3.1792    3.2793 H        1 ZINC000001530981    0.0600
33     H33     7.2369   -0.2606    0.8538 H        1 ZINC000001530981    0.0600
34     H34     8.5759    0.5432    1.7076 H        1 ZINC000001530981    0.0700
35     H35     7.3592   -0.3758    2.6259 H        1 ZINC000001530981    0.0600
36     H36     6.2972    3.3409    0.7919 H        1 ZINC000001530981    0.0600
37     H37     7.9558    2.7137    0.6367 H        1 ZINC000001530981    0.0700
38     H38     6.6167    1.9098   -0.2171 H        1 ZINC000001530981    0.0600
39     H39    -1.3244   -1.6331    0.0212 H        1 ZINC000001530981    0.0900
40     H40    -1.9698   -0.1268    0.7163 H        1 ZINC000001530981    0.0500
41     H41    -0.3055   -2.3078   -1.5517 H        1 ZINC000001530981    0.1300
42     H42     0.2187   -3.5669   -3.5696 H        1 ZINC000001530981    0.1200
43     H43    -0.7797   -2.9566   -5.7307 H        1 ZINC000001530981    0.1200
44     H44    -2.3186   -1.0772   -5.9091 H        1 ZINC000001530981    0.1300
45     H45    -3.5435    0.7832   -4.8176 H        1 ZINC000001530981    0.1300
46     H46    -4.0699    2.0410   -2.7989 H        1 ZINC000001530981    0.1200
47     H47    -3.0761    1.4272   -0.6371 H        1 ZINC000001530981    0.1200
@<TRIPOS>BOND
1     1     2     1
2     1     23    1
3     1     24    1
4     1     25    1
5     2     3     1
6     2     12    1
7     3     4     1
8     3     26    1
9     3     27    1
10    4     5     2
11    4     28    1
12    5     6     1
13    5     29    1
14    6     7     3
15    7     8     1
16    8     9     1
17    8     10    1
18    8     11    1
19    9     30    1
20    9     31    1
21    9     32    1
22    10    33    1
23    10    34    1
24    10    35    1
25    11    36    1
26    11    37    1
27    11    38    1
28    12    13    1
29    12    39    1
30    12    40    1
31    13    22    ar
32    13    14    ar
33    14    19    ar
34    14    15    ar
35    15    16    ar
36    15    41    1
37    16    17    ar
38    16    42    1
39    17    18    ar
40    17    43    1
41    18    19    ar
42    18    44    1
43    19    20    ar
44    20    21    ar
45    20    45    1
46    21    22    ar
47    21    46    1
48    22    47    1
@<TRIPOS>SUBSTRUCTURE
1   ZINC000001530981 1     RESIDUE    1   A     ZIN   1
