@<TRIPOS>MOLECULE
ZINC000001482049
26    26    1     0     0
SMALL
USER_CHARGES
@<TRIPOS>ATOM
1      N1     -0.0116    1.0048    0.0076 N.4      1 ZINC000001482049   -0.6100
2      H2      0.0021   -0.0041    0.0020 H        1 ZINC000001482049    0.4100
3      H3      0.9350    1.3541    0.0004 H        1 ZINC000001482049    0.4200
4      H4     -0.4996    1.3391   -0.8099 H        1 ZINC000001482049    0.4400
5      C5     -0.6992    1.4786    1.2162 C.3      1 ZINC000001482049   -0.0800
6      H6     -1.7218    1.1013    1.2239 H        1 ZINC000001482049    0.1500
7      C7     -0.7196    2.9854    1.2245 C.2      1 ZINC000001482049    0.5000
8      O8     -0.2088    3.6071    0.3085 O.co2    1 ZINC000001482049   -0.6700
9      O9     -1.2470    3.5829    2.1472 O.co2    1 ZINC000001482049   -0.6300
10     C10     0.0408    0.9717    2.4557 C.3      1 ZINC000001482049    0.1600
11     H11    -0.5175    1.2476    3.3503 H        1 ZINC000001482049    0.1500
12     O12     1.3426    1.5590    2.5066 O.3      1 ZINC000001482049   -0.5200
13     C13     0.1687   -0.5282    2.3861 C.ar     1 ZINC000001482049   -0.1400
14     C14     1.2199   -1.0992    1.6939 C.ar     1 ZINC000001482049   -0.1400
15     C15     1.3414   -2.4750    1.6266 C.ar     1 ZINC000001482049   -0.1200
16     C16     0.4086   -3.2842    2.2543 C.ar     1 ZINC000001482049    0.0900
17     O17     0.5270   -4.6374    2.1896 O.3      1 ZINC000001482049   -0.4900
18     C18    -0.6498   -2.7092    2.9519 C.ar     1 ZINC000001482049    0.1000
19     O19    -1.5678   -3.4994    3.5701 O.3      1 ZINC000001482049   -0.4800
20     C20    -0.7628   -1.3302    3.0196 C.ar     1 ZINC000001482049   -0.1100
21     H21     1.8963    1.3551    1.7405 H        1 ZINC000001482049    0.3600
22     H22     1.9478   -0.4694    1.2041 H        1 ZINC000001482049    0.1300
23     H23     2.1634   -2.9187    1.0845 H        1 ZINC000001482049    0.1400
24     H24     1.0498   -5.0213    2.9067 H        1 ZINC000001482049    0.4000
25     H25    -1.3444   -3.7203    4.4846 H        1 ZINC000001482049    0.4000
26     H26    -1.5831   -0.8815    3.5602 H        1 ZINC000001482049    0.1500
@<TRIPOS>BOND
1     1     2     1
2     1     3     1
3     1     4     1
4     1     5     1
5     5     6     1
6     5     7     1
7     5     10    1
8     7     8     ar
9     7     9     ar
10    10    11    1
11    10    12    1
12    10    13    1
13    12    21    1
14    13    20    ar
15    13    14    ar
16    14    15    ar
17    14    22    1
18    15    16    ar
19    15    23    1
20    16    17    1
21    16    18    ar
22    17    24    1
23    18    19    1
24    18    20    ar
25    19    25    1
26    20    26    1
@<TRIPOS>SUBSTRUCTURE
1   ZINC000001482049 1     RESIDUE    1   A     ZIN   1

@<TRIPOS>MOLECULE
ZINC000001482049
25    25    1     0     0
SMALL
USER_CHARGES
@<TRIPOS>ATOM
1      N1     -0.0178    1.4648    0.0101 N.3      1 ZINC000001482049   -0.8200
2      C2      0.0021   -0.0041    0.0020 C.3      1 ZINC000001482049   -0.0100
3      H3      0.5890   -0.3641    0.8470 H        1 ZINC000001482049    0.0800
4      C4      0.6205   -0.4910   -1.2831 C.2      1 ZINC000001482049    0.4800
5      O5      1.0086    0.3112   -2.1151 O.co2    1 ZINC000001482049   -0.7000
6      O6      0.7326   -1.6872   -1.4908 O.co2    1 ZINC000001482049   -0.6900
7      C7     -1.4289   -0.5341    0.1123 C.3      1 ZINC000001482049    0.1700
8      H8     -1.4085   -1.6207    0.1957 H        1 ZINC000001482049    0.1100
9      O9     -2.1667   -0.1597   -1.0528 O.3      1 ZINC000001482049   -0.5500
10     C10    -2.0886    0.0512    1.3343 C.ar     1 ZINC000001482049   -0.0700
11     C11    -2.6990    1.2891    1.2622 C.ar     1 ZINC000001482049   -0.0800
12     C12    -3.3053    1.8307    2.3808 C.ar     1 ZINC000001482049   -0.1300
13     C13    -3.3022    1.1320    3.5769 C.ar     1 ZINC000001482049    0.0700
14     O14    -3.8984    1.6630    4.6779 O.3      1 ZINC000001482049   -0.4900
15     C15    -2.6879   -0.1150    3.6494 C.ar     1 ZINC000001482049    0.0800
16     O16    -2.6827   -0.8050    4.8213 O.3      1 ZINC000001482049   -0.4900
17     C17    -2.0869   -0.6541    2.5238 C.ar     1 ZINC000001482049   -0.1300
18     H18     0.9191    1.8392    0.0032 H        1 ZINC000001482049    0.3400
19     H19    -0.5563    1.8234   -0.7642 H        1 ZINC000001482049    0.3300
20     H20    -2.2261    0.7956   -1.1905 H        1 ZINC000001482049    0.3700
21     H21    -2.7021    1.8348    0.3302 H        1 ZINC000001482049    0.1300
22     H22    -3.7809    2.7985    2.3220 H        1 ZINC000001482049    0.1300
23     H23    -4.8319    1.4283    4.7714 H        1 ZINC000001482049    0.3800
24     H24    -3.4422   -1.3925    4.9352 H        1 ZINC000001482049    0.3800
25     H25    -1.6096   -1.6214    2.5774 H        1 ZINC000001482049    0.1300
@<TRIPOS>BOND
1     1     2     1
2     1     18    1
3     1     19    1
4     2     3     1
5     2     4     1
6     2     7     1
7     4     5     ar
8     4     6     ar
9     7     8     1
10    7     9     1
11    7     10    1
12    9     20    1
13    10    17    ar
14    10    11    ar
15    11    12    ar
16    11    21    1
17    12    13    ar
18    12    22    1
19    13    14    1
20    13    15    ar
21    14    23    1
22    15    16    1
23    15    17    ar
24    16    24    1
25    17    25    1
@<TRIPOS>SUBSTRUCTURE
1   ZINC000001482049 1     RESIDUE    1   A     ZIN   1
