@<TRIPOS>MOLECULE
ZINC000095452610
35    35    1     0     0
SMALL
USER_CHARGES
@<TRIPOS>ATOM
1      C1     -1.4801    1.9269    1.8394 C.3      1 ZINC000095452610   -0.1700
2      C2     -0.9081    0.5420    1.5299 C.3      1 ZINC000095452610    0.1100
3      C3      0.1240    0.1667    2.5951 C.3      1 ZINC000095452610   -0.1900
4      N4     -1.9910   -0.4448    1.5301 N.pl3    1 ZINC000095452610   -0.6300
5      C5     -1.8621   -1.6069    0.8072 C.cat    1 ZINC000095452610    0.7400
6      N6     -0.7771   -1.8307    0.1221 N.pl3    1 ZINC000095452610   -0.7700
7      H7     -0.7316   -2.5901   -0.4797 H        1 ZINC000095452610    0.4400
8      H8     -0.0148   -1.2379    0.2136 H        1 ZINC000095452610    0.4600
9      N9     -2.8816   -2.5359    0.8075 N.pl3    1 ZINC000095452610   -0.6500
10     C10    -2.6952   -3.7647    0.2086 C.cat    1 ZINC000095452610    0.7400
11     N11    -1.4941   -4.2528    0.0837 N.pl3    1 ZINC000095452610   -0.7600
12     H12    -1.3496   -5.0581   -0.4375 H        1 ZINC000095452610    0.4700
13     H13    -0.7441   -3.8111    0.5117 H        1 ZINC000095452610    0.4500
14     N14    -3.7783   -4.4747   -0.2569 N.pl3    1 ZINC000095452610   -0.5600
15     C15    -5.0710   -3.9636   -0.0968 C.ar     1 ZINC000095452610    0.0500
16     C16    -5.3171   -2.6139   -0.3124 C.ar     1 ZINC000095452610   -0.1400
17     C17    -6.5939   -2.1120   -0.1537 C.ar     1 ZINC000095452610   -0.0800
18     C18    -7.6277   -2.9527    0.2198 C.ar     1 ZINC000095452610   -0.0100
19     Cl19   -9.2315   -2.3186    0.4185 Cl       1 ZINC000095452610   -0.0100
20     C20    -7.3853   -4.2981    0.4349 C.ar     1 ZINC000095452610   -0.0700
21     C21    -6.1114   -4.8062    0.2724 C.ar     1 ZINC000095452610   -0.0700
22     H22    -0.6744    2.6611    1.8393 H        1 ZINC000095452610    0.1100
23     H23    -2.2154    2.1942    1.0806 H        1 ZINC000095452610    0.0800
24     H24    -1.9579    1.9120    2.8190 H        1 ZINC000095452610    0.0800
25     H25    -0.4304    0.5569    0.5503 H        1 ZINC000095452610    0.1100
26     H26    -0.3537    0.1519    3.5747 H        1 ZINC000095452610    0.0900
27     H27     0.5315   -0.8199    2.3746 H        1 ZINC000095452610    0.0600
28     H28     0.9297    0.9009    2.5949 H        1 ZINC000095452610    0.1100
29     H29    -2.7989   -0.2781    2.0404 H        1 ZINC000095452610    0.4500
30     H30    -3.7296   -2.3253    1.2287 H        1 ZINC000095452610    0.4700
31     H31    -3.6456   -5.3294   -0.6959 H        1 ZINC000095452610    0.4600
32     H32    -4.5105   -1.9573   -0.6035 H        1 ZINC000095452610    0.1400
33     H33    -6.7857   -1.0624   -0.3208 H        1 ZINC000095452610    0.1600
34     H34    -8.1940   -4.9522    0.7259 H        1 ZINC000095452610    0.1700
35     H35    -5.9228   -5.8562    0.4403 H        1 ZINC000095452610    0.1600
@<TRIPOS>BOND
1     1     2     1
2     1     22    1
3     1     23    1
4     1     24    1
5     2     3     1
6     2     4     1
7     2     25    1
8     3     26    1
9     3     27    1
10    3     28    1
11    4     5     ar
12    4     29    1
13    5     6     ar
14    5     9     ar
15    6     7     1
16    6     8     1
17    9     10    ar
18    9     30    1
19    10    11    ar
20    10    14    ar
21    11    12    1
22    11    13    1
23    14    15    1
24    14    31    1
25    15    21    ar
26    15    16    ar
27    16    17    ar
28    16    32    1
29    17    18    ar
30    17    33    1
31    18    19    1
32    18    20    ar
33    20    21    ar
34    20    34    1
35    21    35    1
@<TRIPOS>SUBSTRUCTURE
1   ZINC000095452610 1     RESIDUE    1   A     ZIN   1

@<TRIPOS>MOLECULE
ZINC000095452610
34    34    1     0     0
SMALL
USER_CHARGES
@<TRIPOS>ATOM
1      C1     -2.1353    1.0080    0.8439 C.3      1 ZINC000095452610   -0.1800
2      C2     -1.7164    1.7798    2.0969 C.3      1 ZINC000095452610    0.1100
3      C3     -2.9500    2.4174    2.7392 C.3      1 ZINC000095452610   -0.1600
4      N4     -1.0897    0.8604    3.0499 N.pl3    1 ZINC000095452610   -0.6400
5      C5      0.2491    0.5673    2.9433 C.cat    1 ZINC000095452610    0.7400
6      N6      0.9293    0.9929    1.9172 N.pl3    1 ZINC000095452610   -0.7700
7      H7      1.8553    0.7268    1.8050 H        1 ZINC000095452610    0.4400
8      H8      0.5098    1.5760    1.2653 H        1 ZINC000095452610    0.4500
9      N9      0.8722   -0.1775    3.9228 N.pl3    1 ZINC000095452610   -0.6400
10     C10     0.1289   -0.7370    4.9415 C.2      1 ZINC000095452610    0.6500
11     N11    -1.1347   -0.4448    5.0620 N.2      1 ZINC000095452610   -0.7800
12     N12     0.7225   -1.6037    5.8305 N.pl3    1 ZINC000095452610   -0.6800
13     C13     2.1040   -1.8201    5.7801 C.ar     1 ZINC000095452610    0.1300
14     C14     2.9694   -0.7499    5.5946 C.ar     1 ZINC000095452610   -0.1700
15     C15     4.3325   -0.9662    5.5452 C.ar     1 ZINC000095452610   -0.0700
16     C16     4.8363   -2.2480    5.6804 C.ar     1 ZINC000095452610   -0.0400
17     Cl17    6.5502   -2.5164    5.6178 Cl       1 ZINC000095452610   -0.0400
18     C18     3.9762   -3.3161    5.8658 C.ar     1 ZINC000095452610   -0.0700
19     C19     2.6125   -3.1047    5.9212 C.ar     1 ZINC000095452610   -0.1100
20     H20    -2.8461    0.2285    1.1180 H        1 ZINC000095452610    0.0800
21     H21    -2.6016    1.6920    0.1348 H        1 ZINC000095452610    0.0900
22     H22    -1.2564    0.5538    0.3863 H        1 ZINC000095452610    0.0600
23     H23    -1.0056    2.5593    1.8228 H        1 ZINC000095452610    0.0900
24     H24    -3.6609    1.6379    3.0133 H        1 ZINC000095452610    0.0800
25     H25    -2.6517    2.9672    3.6319 H        1 ZINC000095452610    0.0700
26     H26    -3.4163    3.1014    2.0302 H        1 ZINC000095452610    0.0900
27     H27    -1.6194    0.4586    3.7562 H        1 ZINC000095452610    0.4500
28     H28     1.8330   -0.3080    3.8954 H        1 ZINC000095452610    0.4500
29     H29    -1.6399   -0.7796    5.8193 H        1 ZINC000095452610    0.3800
30     H30     0.1832   -2.0647    6.4920 H        1 ZINC000095452610    0.4400
31     H31     2.5767    0.2506    5.4887 H        1 ZINC000095452610    0.1400
32     H32     5.0059   -0.1343    5.4006 H        1 ZINC000095452610    0.1500
33     H33     4.3719   -4.3154    5.9714 H        1 ZINC000095452610    0.1500
34     H34     1.9417   -3.9386    6.0660 H        1 ZINC000095452610    0.1500
@<TRIPOS>BOND
1     1     2     1
2     1     20    1
3     1     21    1
4     1     22    1
5     2     3     1
6     2     4     1
7     2     23    1
8     3     24    1
9     3     25    1
10    3     26    1
11    4     5     ar
12    4     27    1
13    5     6     ar
14    5     9     ar
15    6     7     1
16    6     8     1
17    9     10    1
18    9     28    1
19    10    11    2
20    10    12    1
21    11    29    1
22    12    13    1
23    12    30    1
24    13    19    ar
25    13    14    ar
26    14    15    ar
27    14    31    1
28    15    16    ar
29    15    32    1
30    16    17    1
31    16    18    ar
32    18    19    ar
33    18    33    1
34    19    34    1
@<TRIPOS>SUBSTRUCTURE
1   ZINC000095452610 1     RESIDUE    1   A     ZIN   1
