@<TRIPOS>MOLECULE
ZINC000001530816
  37   37    0    0    0
SMALL
USER_CHARGES
NO_NAME
@<TRIPOS>ATOM
    1 C1       -0.0176     1.5261     0.0600 C.3    1 <0>      -0.1600
    2 C2        0.0029    -0.0037     0.0401 C.3    1 <0>      -0.1500
    3 C3       -1.4326    -0.5331     0.0460 C.3    1 <0>      -0.0100
    4 N4       -1.4129    -2.0018     0.0268 N.4    1 <0>      -0.5000
    5 H5       -0.9401    -2.3210    -0.8054 H      1 <0>       0.4300
    6 H6       -0.9254    -2.3423     0.8421 H      1 <0>       0.4400
    7 C7       -2.7911    -2.5101     0.0325 C.3    1 <0>       0.0100
    8 H8       -3.3284    -2.0937     0.8846 H      1 <0>       0.1700
    9 C9       -3.4921    -2.0978    -1.2634 C.3    1 <0>      -0.1800
   10 C10      -2.7717    -4.0134     0.1368 C.2    1 <0>       0.5000
   11 O11      -1.7138    -4.6033     0.2001 O.2    1 <0>      -0.5100
   12 N12      -3.9298    -4.7023     0.1596 N.am   1 <0>      -0.6400
   13 C13      -3.9117    -6.1015     0.1613 C.ar   1 <0>       0.1100
   14 C14      -2.9021    -6.7833     0.8276 C.ar   1 <0>      -0.1100
   15 C15      -2.8870    -8.1646     0.8273 C.ar   1 <0>      -0.1100
   16 C16      -3.8754    -8.8681     0.1642 C.ar   1 <0>      -0.1100
   17 C17      -4.8821    -8.1919    -0.5007 C.ar   1 <0>      -0.1000
   18 C18      -4.9066    -6.8112    -0.4987 C.ar   1 <0>      -0.1000
   19 C19      -6.0038    -6.0751    -1.2234 C.3    1 <0>      -0.1200
   20 H20       1.0051     1.9032     0.0558 H      1 <0>       0.0800
   21 H21      -0.5441     1.8939    -0.8206 H      1 <0>       0.0700
   22 H22      -0.5283     1.8709     0.9591 H      1 <0>       0.0700
   23 H23       0.5137    -0.3485    -0.8590 H      1 <0>       0.0900
   24 H24       0.5295    -0.3715     0.9207 H      1 <0>       0.0900
   25 H25      -1.9433    -0.1882     0.9451 H      1 <0>       0.1300
   26 H26      -1.9591    -0.1652    -0.8347 H      1 <0>       0.1400
   27 H27      -2.9548    -2.5142    -2.1155 H      1 <0>       0.0900
   28 H28      -4.5148    -2.4750    -1.2592 H      1 <0>       0.1100
   29 H29      -3.5061    -1.0105    -1.3388 H      1 <0>       0.1000
   30 H30      -4.7759    -4.2282     0.1749 H      1 <0>       0.4200
   31 H31      -2.1294    -6.2344     1.3451 H      1 <0>       0.1400
   32 H32      -2.1021    -8.6956     1.3453 H      1 <0>       0.1300
   33 H33      -3.8612    -9.9480     0.1652 H      1 <0>       0.1300
   34 H34      -5.6523    -8.7443    -1.0184 H      1 <0>       0.1300
   35 H35      -6.8401    -5.9091    -0.5443 H      1 <0>       0.0800
   36 H36      -5.6261    -5.1154    -1.5761 H      1 <0>       0.0600
   37 H37      -6.3389    -6.6685    -2.0742 H      1 <0>       0.0800
@<TRIPOS>BOND
   1    1    2 1
   2    1   20 1
   3    1   21 1
   4    1   22 1
   5    2    3 1
   6    2   23 1
   7    2   24 1
   8    3    4 1
   9    3   25 1
  10    3   26 1
  11    4    5 1
  12    4    6 1
  13    4    7 1
  14    7    8 1
  15    7    9 1
  16    7   10 1
  17    9   27 1
  18    9   28 1
  19    9   29 1
  20   10   11 2
  21   10   12 am
  22   12   13 1
  23   12   30 1
  24   13   18 ar
  25   13   14 ar
  26   14   15 ar
  27   14   31 1
  28   15   16 ar
  29   15   32 1
  30   16   17 ar
  31   16   33 1
  32   17   18 ar
  33   17   34 1
  34   18   19 1
  35   19   35 1
  36   19   36 1
  37   19   37 1

@<TRIPOS>MOLECULE
ZINC000001530816
  36   36    0    0    0
SMALL
USER_CHARGES
NO_NAME
@<TRIPOS>ATOM
    1 C1        0.0251     1.5357    -0.0084 C.3    1 <0>      -0.1500
    2 C2        0.0351     0.0057    -0.0124 C.3    1 <0>      -0.1200
    3 C3        0.7711    -0.5027     1.2289 C.3    1 <0>       0.0600
    4 N4        0.7807    -1.9716     1.2251 N.3    1 <0>      -0.6700
    5 C5        1.4807    -2.4965     2.4052 C.3    1 <0>       0.0700
    6 H6        2.3096    -1.8360     2.6596 H      1 <0>       0.1100
    7 C7        0.5080    -2.5714     3.5838 C.3    1 <0>      -0.1800
    8 C8        2.0109    -3.8745     2.1031 C.2    1 <0>       0.5200
    9 O9        1.8240    -4.3705     1.0122 O.2    1 <0>      -0.5000
   10 N10       2.6926    -4.5557     3.0453 N.am   1 <0>      -0.6800
   11 C11       3.1031    -5.8704     2.7985 C.ar   1 <0>       0.1400
   12 C12       3.4869    -6.2509     1.5194 C.ar   1 <0>      -0.1200
   13 C13       3.8916    -7.5496     1.2791 C.ar   1 <0>      -0.1100
   14 C14       3.9144    -8.4702     2.3103 C.ar   1 <0>      -0.1300
   15 C15       3.5323    -8.0945     3.5853 C.ar   1 <0>      -0.1000
   16 C16       3.1331    -6.7961     3.8335 C.ar   1 <0>      -0.1100
   17 C17       2.7169    -6.3874     5.2231 C.3    1 <0>      -0.1200
   18 H18       1.0503     1.9058    -0.0169 H      1 <0>       0.0600
   19 H19      -0.4992     1.8978    -0.8928 H      1 <0>       0.0600
   20 H20      -0.4830     1.8933     0.8871 H      1 <0>       0.0500
   21 H21      -0.9901    -0.3644    -0.0040 H      1 <0>       0.0600
   22 H22       0.5432    -0.3520    -0.9079 H      1 <0>       0.0700
   23 H23       1.7963    -0.1326     1.2205 H      1 <0>       0.0700
   24 H24       0.2630    -0.1450     2.1245 H      1 <0>       0.0300
   25 H25      -0.1571    -2.3393     1.1678 H      1 <0>       0.3500
   26 H26       1.0273    -2.9608     4.4594 H      1 <0>       0.0700
   27 H27       0.1245    -1.5747     3.8022 H      1 <0>       0.0700
   28 H28      -0.3210    -3.2319     3.3294 H      1 <0>       0.0700
   29 H29       2.8987    -4.1345     3.8944 H      1 <0>       0.4100
   30 H30       3.4686    -5.5324     0.7133 H      1 <0>       0.1400
   31 H31       4.1902    -7.8462     0.2844 H      1 <0>       0.1300
   32 H32       4.2308    -9.4851     2.1197 H      1 <0>       0.1200
   33 H33       3.5505    -8.8162     4.3886 H      1 <0>       0.1300
   34 H34       3.5879    -6.0314     5.7733 H      1 <0>       0.0700
   35 H35       1.9758    -5.5906     5.1609 H      1 <0>       0.0600
   36 H36       2.2861    -7.2448     5.7402 H      1 <0>       0.0700
@<TRIPOS>BOND
   1    1    2 1
   2    1   18 1
   3    1   19 1
   4    1   20 1
   5    2    3 1
   6    2   21 1
   7    2   22 1
   8    3    4 1
   9    3   23 1
  10    3   24 1
  11    4    5 1
  12    4   25 1
  13    5    6 1
  14    5    7 1
  15    5    8 1
  16    7   26 1
  17    7   27 1
  18    7   28 1
  19    8    9 2
  20    8   10 am
  21   10   11 1
  22   10   29 1
  23   11   16 ar
  24   11   12 ar
  25   12   13 ar
  26   12   30 1
  27   13   14 ar
  28   13   31 1
  29   14   15 ar
  30   14   32 1
  31   15   16 ar
  32   15   33 1
  33   16   17 1
  34   17   34 1
  35   17   35 1
  36   17   36 1
