@<TRIPOS>MOLECULE
ZINC000008101109
   7    6    0    0    0
SMALL
USER_CHARGES
NO_NAME
@<TRIPOS>ATOM
    1 O1        0.0021    -0.0041     0.0020 O.co2  1 <0>      -0.7700
    2 C2       -0.0145     1.2150     0.0087 C.2    1 <0>      -0.0800
    3 O3        1.0330     1.8389     0.0021 O.co2  1 <0>      -0.7700
    4 P4       -1.5976     2.1006     0.0210 P.3    1 <0>       2.2100
    5 O5       -2.0463     2.3475     1.5016 O.co2  1 <0>      -1.2000
    6 O6       -1.4323     3.4759    -0.7108 O.co2  1 <0>      -1.2000
    7 O7       -2.6813     1.2432    -0.7170 O.co2  1 <0>      -1.2000
@<TRIPOS>BOND
   1    1    2 ar
   2    2    3 ar
   3    2    4 1
   4    4    5 ar
   5    4    6 ar
   6    4    7 ar

@<TRIPOS>MOLECULE
ZINC000008101109
   8    7    0    0    0
SMALL
USER_CHARGES
NO_NAME
@<TRIPOS>ATOM
    1 O1        0.0021    -0.0041     0.0020 O.co2  1 <0>      -0.7200
    2 C2       -0.0145     1.2150     0.0087 C.2    1 <0>      -0.0400
    3 O3        1.0330     1.8389     0.0021 O.co2  1 <0>      -0.7200
    4 P4       -1.5976     2.1006     0.0210 P.3    1 <0>       2.1900
    5 O5       -1.4277     3.4490     0.7559 O.2    1 <0>      -1.1000
    6 O6       -2.6594     1.2471     0.7498 O.3    1 <0>      -1.1000
    7 O7       -2.0731     2.3708    -1.4932 O.3    1 <0>      -0.8900
    8 H8       -2.9148     2.8418    -1.5630 H      1 <0>       0.3900
@<TRIPOS>BOND
   1    1    2 ar
   2    2    3 ar
   3    2    4 1
   4    4    5 2
   5    4    6 1
   6    4    7 1
   7    7    8 1

@<TRIPOS>MOLECULE
ZINC000008101109
   8    7    0    0    0
SMALL
USER_CHARGES
NO_NAME
@<TRIPOS>ATOM
    1 O1        0.0021    -0.0041     0.0020 O.co2  1 <0>      -0.7400
    2 C2       -0.0145     1.2150     0.0087 C.2    1 <0>      -0.0400
    3 O3        1.0330     1.8389     0.0021 O.co2  1 <0>      -0.7000
    4 P4       -1.5976     2.1006     0.0210 P.3    1 <0>       2.1900
    5 O5       -1.6855     2.9808     1.2878 O.2    1 <0>      -1.1100
    6 O6       -1.6974     2.9945    -1.2351 O.3    1 <0>      -1.1100
    7 O7       -2.8070     1.0378     0.0210 O.3    1 <0>      -0.8800
    8 H8       -3.6855     1.4418     0.0274 H      1 <0>       0.3900
@<TRIPOS>BOND
   1    1    2 ar
   2    2    3 ar
   3    2    4 1
   4    4    5 2
   5    4    6 1
   6    4    7 1
   7    7    8 1
