@<TRIPOS>MOLECULE
ZINC000000001016
28    29    1     0     0
SMALL
USER_CHARGES
@<TRIPOS>ATOM
1      O1      5.8290    3.0070   -0.0364 O.2      1 ZINC000000001016   -0.4700
2      C2      5.8502    1.7919   -0.0423 C.2      1 ZINC000000001016    0.5000
3      O3      4.6985    1.0998   -0.0350 O.3      1 ZINC000000001016   -0.1600
4      O4      3.6300    1.7675   -0.0221 O.3      1 ZINC000000001016   -0.1600
5      C5      2.4783    1.0754   -0.0148 C.2      1 ZINC000000001016    0.5000
6      O6      2.4995   -0.1397   -0.0207 O.2      1 ZINC000000001016   -0.4700
7      C7      1.1859    1.7918    0.0004 C.ar     1 ZINC000000001016   -0.1200
8      C8     -0.0126    1.0758    0.0080 C.ar     1 ZINC000000001016   -0.0500
9      C9     -1.2156    1.7508    0.0173 C.ar     1 ZINC000000001016   -0.1300
10     C10    -1.2361    3.1343    0.0302 C.ar     1 ZINC000000001016   -0.0800
11     C11    -0.0520    3.8500    0.0223 C.ar     1 ZINC000000001016   -0.1300
12     C12     1.1579    3.1875    0.0076 C.ar     1 ZINC000000001016   -0.0600
13     C13     7.1426    1.0755   -0.0575 C.ar     1 ZINC000000001016   -0.1200
14     C14     7.1706   -0.3202   -0.0585 C.ar     1 ZINC000000001016   -0.0600
15     C15     8.3805   -0.9827   -0.0775 C.ar     1 ZINC000000001016   -0.1300
16     C16     9.5646   -0.2670   -0.0850 C.ar     1 ZINC000000001016   -0.0800
17     C17     9.5440    1.1165   -0.0788 C.ar     1 ZINC000000001016   -0.1300
18     C18     8.3410    1.7915   -0.0651 C.ar     1 ZINC000000001016   -0.0500
19     H19     0.0021   -0.0041    0.0020 H        1 ZINC000000001016    0.1400
20     H20    -2.1435    1.1982    0.0187 H        1 ZINC000000001016    0.1400
21     H21    -2.1806    3.6578    0.0420 H        1 ZINC000000001016    0.1300
22     H22    -0.0750    4.9298    0.0279 H        1 ZINC000000001016    0.1400
23     H23     2.0815    3.7474    0.0015 H        1 ZINC000000001016    0.1400
24     H24     6.2471   -0.8801   -0.0484 H        1 ZINC000000001016    0.1400
25     H25     8.4035   -2.0625   -0.0828 H        1 ZINC000000001016    0.1400
26     H26    10.5091   -0.7905   -0.0953 H        1 ZINC000000001016    0.1300
27     H27    10.4719    1.6692   -0.0850 H        1 ZINC000000001016    0.1400
28     H28     8.3264    2.8714   -0.0599 H        1 ZINC000000001016    0.1400
@<TRIPOS>BOND
1     1     2     2
2     2     3     1
3     2     13    1
4     3     4     1
5     4     5     1
6     5     6     2
7     5     7     1
8     7     12    ar
9     7     8     ar
10    8     9     ar
11    8     19    1
12    9     10    ar
13    9     20    1
14    10    11    ar
15    10    21    1
16    11    12    ar
17    11    22    1
18    12    23    1
19    13    18    ar
20    13    14    ar
21    14    15    ar
22    14    24    1
23    15    16    ar
24    15    25    1
25    16    17    ar
26    16    26    1
27    17    18    ar
28    17    27    1
29    18    28    1
@<TRIPOS>SUBSTRUCTURE
1   ZINC000000001016 1     RESIDUE    1   A     ZIN   1
