@<TRIPOS>MOLECULE
ZINC000019364219
39    38    1     0     0
SMALL
USER_CHARGES
@<TRIPOS>ATOM
1      C1     -1.0494    3.1121   -0.5605 C.3      1 ZINC000019364219   -0.1500
2      C2     -1.1044    1.6219   -0.2183 C.3      1 ZINC000019364219   -0.1100
3      C3     -0.2707    0.8349   -1.2315 C.3      1 ZINC000019364219    0.0900
4      H4      0.7419    1.2373   -1.2595 H        1 ZINC000019364219    0.0900
5      C5     -0.2231   -0.6376   -0.8186 C.3      1 ZINC000019364219    0.0400
6      O6     -1.5548   -1.1336   -0.6687 O.3      1 ZINC000019364219   -0.5700
7      N7     -0.8806    0.9507   -2.5628 N.3      1 ZINC000019364219   -0.6700
8      C8      0.1203    0.7520   -3.6195 C.3      1 ZINC000019364219    0.0300
9      C9     -0.5510    0.8797   -4.9884 C.3      1 ZINC000019364219   -0.0100
10     N10     0.4499    0.6810   -6.0451 N.4      1 ZINC000019364219   -0.5000
11     H11     1.2158    1.3234   -5.9080 H        1 ZINC000019364219    0.4300
12     H12     0.7948   -0.2665   -6.0079 H        1 ZINC000019364219    0.4300
13     C13    -0.1664    0.9266   -7.3558 C.3      1 ZINC000019364219    0.0300
14     H14    -0.6233    1.9162   -7.3627 H        1 ZINC000019364219    0.1500
15     C15     0.9052    0.8520   -8.4453 C.3      1 ZINC000019364219   -0.1400
16     C16     1.9082    1.9913   -8.2530 C.3      1 ZINC000019364219   -0.1800
17     C17    -1.2385   -0.1320   -7.6217 C.3      1 ZINC000019364219    0.0500
18     O18    -0.6228   -1.4172   -7.7283 O.3      1 ZINC000019364219   -0.5800
19     H19    -0.0155    3.4552   -0.5249 H        1 ZINC000019364219    0.0500
20     H20    -1.4503    3.2700   -1.5618 H        1 ZINC000019364219    0.0600
21     H21    -1.6434    3.6728    0.1612 H        1 ZINC000019364219    0.0500
22     H22    -0.7036    1.4640    0.7829 H        1 ZINC000019364219    0.0700
23     H23    -2.1384    1.2788   -0.2540 H        1 ZINC000019364219    0.0800
24     H24     0.2950   -1.2134   -1.5855 H        1 ZINC000019364219    0.0400
25     H25     0.3087   -0.7325    0.1282 H        1 ZINC000019364219    0.0600
26     H26    -1.6011   -2.0635   -0.4074 H        1 ZINC000019364219    0.3900
27     H27    -1.6486    0.3045   -2.6661 H        1 ZINC000019364219    0.3600
28     H28     0.9017    1.5062   -3.5263 H        1 ZINC000019364219    0.0900
29     H29     0.5599   -0.2406   -3.5216 H        1 ZINC000019364219    0.0500
30     H30    -1.3324    0.1254   -5.0817 H        1 ZINC000019364219    0.1300
31     H31    -0.9906    1.8723   -5.0863 H        1 ZINC000019364219    0.1400
32     H32     1.4244   -0.1041   -8.3794 H        1 ZINC000019364219    0.1000
33     H33     0.4349    0.9434   -9.4244 H        1 ZINC000019364219    0.1100
34     H34     2.6054    2.0069   -9.0907 H        1 ZINC000019364219    0.0900
35     H35     1.3750    2.9408   -8.2064 H        1 ZINC000019364219    0.0700
36     H36     2.4588    1.8379   -7.3248 H        1 ZINC000019364219    0.0500
37     H37    -1.9540   -0.1390   -6.7994 H        1 ZINC000019364219    0.0700
38     H38    -1.7564    0.1010   -8.5520 H        1 ZINC000019364219    0.1000
39     H39    -1.2445   -2.1384   -7.8971 H        1 ZINC000019364219    0.4100
@<TRIPOS>BOND
1     1     2     1
2     1     19    1
3     1     20    1
4     1     21    1
5     2     3     1
6     2     22    1
7     2     23    1
8     3     4     1
9     3     5     1
10    3     7     1
11    5     6     1
12    5     24    1
13    5     25    1
14    6     26    1
15    7     8     1
16    7     27    1
17    8     9     1
18    8     28    1
19    8     29    1
20    9     10    1
21    9     30    1
22    9     31    1
23    10    11    1
24    10    12    1
25    10    13    1
26    13    14    1
27    13    15    1
28    13    17    1
29    15    16    1
30    15    32    1
31    15    33    1
32    16    34    1
33    16    35    1
34    16    36    1
35    17    18    1
36    17    37    1
37    17    38    1
38    18    39    1
@<TRIPOS>SUBSTRUCTURE
1   ZINC000019364219 1     RESIDUE    1   A     ZIN   1

@<TRIPOS>MOLECULE
ZINC000019364219
40    39    1     0     0
SMALL
USER_CHARGES
@<TRIPOS>ATOM
1      C1     -0.6486    3.3153   -0.7894 C.3      1 ZINC000019364219   -0.1800
2      C2     -0.6421    1.8346   -0.4043 C.3      1 ZINC000019364219   -0.1500
3      C3      0.1379    1.0384   -1.4525 C.3      1 ZINC000019364219    0.0300
4      H4      1.1357    1.4632   -1.5630 H        1 ZINC000019364219    0.1600
5      C5      0.2513   -0.4202   -1.0047 C.3      1 ZINC000019364219    0.0500
6      O6     -1.0538   -0.9423   -0.7476 O.3      1 ZINC000019364219   -0.5800
7      N7     -0.5667    1.1021   -2.7399 N.4      1 ZINC000019364219   -0.5000
8      H8     -1.4577    0.6356   -2.6591 H        1 ZINC000019364219    0.4400
9      H9     -0.7141    2.0670   -2.9953 H        1 ZINC000019364219    0.4300
10     C10     0.2407    0.4400   -3.7733 C.3      1 ZINC000019364219   -0.0400
11     C11    -0.4932    0.5063   -5.1141 C.3      1 ZINC000019364219   -0.0400
12     N12     0.3141   -0.1559   -6.1475 N.4      1 ZINC000019364219   -0.5000
13     H13     1.2354    0.2550   -6.1690 H        1 ZINC000019364219    0.4300
14     H14     0.3894   -1.1397   -5.9364 H        1 ZINC000019364219    0.4400
15     C15    -0.3295    0.0162   -7.4567 C.3      1 ZINC000019364219    0.0300
16     H16    -0.4979    1.0770   -7.6422 H        1 ZINC000019364219    0.1600
17     C17     0.5763   -0.5552   -8.5493 C.3      1 ZINC000019364219   -0.1500
18     C18     1.8653    0.2658   -8.6242 C.3      1 ZINC000019364219   -0.1800
19     C19    -1.6694   -0.7223   -7.4673 C.3      1 ZINC000019364219    0.0500
20     O20    -1.4401   -2.1271   -7.3404 O.3      1 ZINC000019364219   -0.5800
21     H21     0.3764    3.6830   -0.8363 H        1 ZINC000019364219    0.0700
22     H22    -1.1226    3.4353   -1.7636 H        1 ZINC000019364219    0.0500
23     H23    -1.2043    3.8825   -0.0427 H        1 ZINC000019364219    0.0900
24     H24    -0.1681    1.7146    0.5698 H        1 ZINC000019364219    0.1200
25     H25    -1.6671    1.4668   -0.3574 H        1 ZINC000019364219    0.1000
26     H26     0.7284   -1.0055   -1.7908 H        1 ZINC000019364219    0.0700
27     H27     0.8504   -0.4757   -0.0958 H        1 ZINC000019364219    0.1000
28     H28    -1.0584   -1.8652   -0.4588 H        1 ZINC000019364219    0.4200
29     H29     1.2032    0.9439   -3.8606 H        1 ZINC000019364219    0.1600
30     H30     0.3999   -0.6024   -3.4974 H        1 ZINC000019364219    0.1500
31     H31    -1.4558    0.0024   -5.0268 H        1 ZINC000019364219    0.1500
32     H32    -0.6525    1.5487   -5.3900 H        1 ZINC000019364219    0.1600
33     H33     0.8189   -1.5917   -8.3150 H        1 ZINC000019364219    0.1000
34     H34     0.0609   -0.5106   -9.5087 H        1 ZINC000019364219    0.1200
35     H35     2.4603   -0.0687   -9.4740 H        1 ZINC000019364219    0.0900
36     H36     1.6178    1.3203   -8.7465 H        1 ZINC000019364219    0.0700
37     H37     2.4360    0.1307   -7.7054 H        1 ZINC000019364219    0.0500
38     H38    -2.2810   -0.3773   -6.6336 H        1 ZINC000019364219    0.0700
39     H39    -2.1874   -0.5220   -8.4052 H        1 ZINC000019364219    0.1000
40     H40    -2.2477   -2.6590   -7.3397 H        1 ZINC000019364219    0.4200
@<TRIPOS>BOND
1     1     2     1
2     1     21    1
3     1     22    1
4     1     23    1
5     2     3     1
6     2     24    1
7     2     25    1
8     3     4     1
9     3     5     1
10    3     7     1
11    5     6     1
12    5     26    1
13    5     27    1
14    6     28    1
15    7     8     1
16    7     9     1
17    7     10    1
18    10    11    1
19    10    29    1
20    10    30    1
21    11    12    1
22    11    31    1
23    11    32    1
24    12    13    1
25    12    14    1
26    12    15    1
27    15    16    1
28    15    17    1
29    15    19    1
30    17    18    1
31    17    33    1
32    17    34    1
33    18    35    1
34    18    36    1
35    18    37    1
36    19    20    1
37    19    38    1
38    19    39    1
39    20    40    1
@<TRIPOS>SUBSTRUCTURE
1   ZINC000019364219 1     RESIDUE    1   A     ZIN   1
