@<TRIPOS>MOLECULE
ZINC000011677376
36    39    1     0     0
SMALL
USER_CHARGES
@<TRIPOS>ATOM
1      C1      1.5232    1.3869   -5.1161 C.3      1 ZINC000011677376    0.0100
2      N2      2.1066    0.6600   -3.9807 N.3      1 ZINC000011677376   -0.5200
3      C3      2.7816    1.5896   -3.0456 C.3      1 ZINC000011677376    0.0400
4      C4      2.5366    1.0317   -1.6244 C.3      1 ZINC000011677376   -0.0400
5      H5      3.5142    0.7214   -1.2554 H        1 ZINC000011677376    0.0900
6      C6      2.0968    2.1506   -0.7526 C.ar     1 ZINC000011677376   -0.1200
7      C7      2.9937    3.2251   -0.6929 C.ar     1 ZINC000011677376   -0.0900
8      C8      2.7592    4.3265    0.0953 C.ar     1 ZINC000011677376   -0.0500
9      Cl9     3.9005    5.6342    0.1306 Cl       1 ZINC000011677376   -0.0600
10     C10     1.6079    4.3864    0.8607 C.ar     1 ZINC000011677376   -0.0800
11     C11     0.7105    3.3474    0.8015 C.ar     1 ZINC000011677376   -0.1300
12     C12     0.9615    2.2234    0.0048 C.ar     1 ZINC000011677376    0.1600
13     O13    -0.0159    1.3225    0.0093 O.3      1 ZINC000011677376   -0.2800
14     C14     0.0021   -0.0041    0.0020 C.ar     1 ZINC000011677376    0.1500
15     C15    -0.8801   -0.6424    0.8845 C.ar     1 ZINC000011677376   -0.1400
16     C16    -0.9147   -2.0141    0.9838 C.ar     1 ZINC000011677376   -0.0900
17     C17    -0.0640   -2.7741    0.2024 C.ar     1 ZINC000011677376   -0.1300
18     C18     0.7933   -2.1518   -0.6761 C.ar     1 ZINC000011677376   -0.0900
19     C19     0.8232   -0.7601   -0.7983 C.ar     1 ZINC000011677376   -0.1200
20     C20     1.7363   -0.2031   -1.8101 C.3      1 ZINC000011677376   -0.0500
21     H21     2.4726   -0.9867   -1.9895 H        1 ZINC000011677376    0.0900
22     C22     1.0498   -0.0238   -3.1850 C.3      1 ZINC000011677376    0.0500
23     H23     0.8237    2.1368   -4.7466 H        1 ZINC000011677376    0.0300
24     H24     2.3168    1.8770   -5.6802 H        1 ZINC000011677376    0.0700
25     H25     0.9963    0.6864   -5.7639 H        1 ZINC000011677376    0.0700
26     H26     3.8493    1.6278   -3.2617 H        1 ZINC000011677376    0.0900
27     H27     2.3468    2.5856   -3.1293 H        1 ZINC000011677376    0.0600
28     H28     3.8969    3.1868   -1.2837 H        1 ZINC000011677376    0.1400
29     H29     1.4170    5.2386    1.4961 H        1 ZINC000011677376    0.1500
30     H30    -0.1890    3.3927    1.3975 H        1 ZINC000011677376    0.1400
31     H31    -1.5431   -0.0482    1.4959 H        1 ZINC000011677376    0.1300
32     H32    -1.6005   -2.4934    1.6667 H        1 ZINC000011677376    0.1300
33     H33    -0.0726   -3.8512    0.2808 H        1 ZINC000011677376    0.1300
34     H34     1.4558   -2.7509   -1.2832 H        1 ZINC000011677376    0.1300
35     H35     0.7995   -0.9904   -3.6224 H        1 ZINC000011677376    0.0900
36     H36     0.1634    0.6043   -3.0967 H        1 ZINC000011677376    0.0500
@<TRIPOS>BOND
1     1     2     1
2     1     23    1
3     1     24    1
4     1     25    1
5     2     22    1
6     2     3     1
7     3     4     1
8     3     26    1
9     3     27    1
10    4     5     1
11    4     20    1
12    4     6     1
13    6     12    ar
14    6     7     ar
15    7     8     ar
16    7     28    1
17    8     9     1
18    8     10    ar
19    10    11    ar
20    10    29    1
21    11    12    ar
22    11    30    1
23    12    13    1
24    13    14    1
25    14    19    ar
26    14    15    ar
27    15    16    ar
28    15    31    1
29    16    17    ar
30    16    32    1
31    17    18    ar
32    17    33    1
33    18    19    ar
34    18    34    1
35    19    20    1
36    20    21    1
37    20    22    1
38    22    35    1
39    22    36    1
@<TRIPOS>SUBSTRUCTURE
1   ZINC000011677376 1     RESIDUE    1   A     ZIN   1

@<TRIPOS>MOLECULE
ZINC000011677376
37    40    1     0     0
SMALL
USER_CHARGES
@<TRIPOS>ATOM
1      C1      5.8748   -2.5304   -2.1134 C.3      1 ZINC000011677376   -0.0500
2      N2      5.5448   -1.2160   -1.5466 N.4      1 ZINC000011677376   -0.3900
3      H3      5.9879   -0.4913   -2.0912 H        1 ZINC000011677376    0.4300
4      C4      6.0205   -1.1458   -0.1518 C.3      1 ZINC000011677376   -0.0100
5      C5      4.8812   -0.4678    0.6478 C.3      1 ZINC000011677376   -0.0500
6      H6      4.8191   -1.0223    1.5841 H        1 ZINC000011677376    0.1200
7      C7      5.2819    0.9068    1.0241 C.ar     1 ZINC000011677376   -0.1500
8      C8      6.4838    0.9922    1.7387 C.ar     1 ZINC000011677376   -0.0900
9      C9      6.9850    2.1936    2.1798 C.ar     1 ZINC000011677376   -0.0500
10     Cl10    8.4810    2.2454    3.0591 Cl       1 ZINC000011677376   -0.0400
11     C11     6.2901    3.3617    1.9195 C.ar     1 ZINC000011677376   -0.0600
12     C12     5.1133    3.2965    1.2125 C.ar     1 ZINC000011677376   -0.1200
13     C13     4.6035    2.0757    0.7493 C.ar     1 ZINC000011677376    0.1700
14     O14     3.4860    2.1614    0.0350 O.3      1 ZINC000011677376   -0.2800
15     C15     2.4010    1.3982   -0.0080 C.ar     1 ZINC000011677376    0.1600
16     C16     1.1713    2.0721    0.0020 C.ar     1 ZINC000011677376   -0.1300
17     C17    -0.0167    1.3785    0.0096 C.ar     1 ZINC000011677376   -0.0700
18     C18     0.0021   -0.0041    0.0020 C.ar     1 ZINC000011677376   -0.1300
19     C19     1.2069   -0.6689   -0.0263 C.ar     1 ZINC000011677376   -0.0800
20     C20     2.4184    0.0268   -0.0370 C.ar     1 ZINC000011677376   -0.1500
21     C21     3.6476   -0.7905   -0.1039 C.3      1 ZINC000011677376   -0.0400
22     H22     3.3571   -1.7796    0.2503 H        1 ZINC000011677376    0.1100
23     C23     4.0825   -1.0232   -1.5643 C.3      1 ZINC000011677376   -0.0100
24     H24     5.5146   -2.5838   -3.1408 H        1 ZINC000011677376    0.1300
25     H25     6.9556   -2.6712   -2.0995 H        1 ZINC000011677376    0.1300
26     H26     5.3990   -3.3116   -1.5206 H        1 ZINC000011677376    0.1200
27     H27     6.2055   -2.1485    0.2336 H        1 ZINC000011677376    0.1400
28     H28     6.9298   -0.5475   -0.0941 H        1 ZINC000011677376    0.1400
29     H29     7.0330    0.0865    1.9498 H        1 ZINC000011677376    0.1400
30     H30     6.6674    4.3119    2.2675 H        1 ZINC000011677376    0.1500
31     H31     4.5687    4.2067    1.0095 H        1 ZINC000011677376    0.1500
32     H32     1.1567    3.1520    0.0041 H        1 ZINC000011677376    0.1400
33     H33    -0.9569    1.9098    0.0170 H        1 ZINC000011677376    0.1400
34     H34    -0.9240   -0.5595    0.0186 H        1 ZINC000011677376    0.1400
35     H35     1.2160   -1.7488   -0.0403 H        1 ZINC000011677376    0.1300
36     H36     3.5938   -1.9128   -1.9616 H        1 ZINC000011677376    0.1400
37     H37     3.8282   -0.1548   -2.1720 H        1 ZINC000011677376    0.1300
@<TRIPOS>BOND
1     1     2     1
2     1     24    1
3     1     25    1
4     1     26    1
5     2     3     1
6     2     23    1
7     2     4     1
8     4     5     1
9     4     27    1
10    4     28    1
11    5     6     1
12    5     21    1
13    5     7     1
14    7     13    ar
15    7     8     ar
16    8     9     ar
17    8     29    1
18    9     10    1
19    9     11    ar
20    11    12    ar
21    11    30    1
22    12    13    ar
23    12    31    1
24    13    14    1
25    14    15    1
26    15    20    ar
27    15    16    ar
28    16    17    ar
29    16    32    1
30    17    18    ar
31    17    33    1
32    18    19    ar
33    18    34    1
34    19    20    ar
35    19    35    1
36    20    21    1
37    21    22    1
38    21    23    1
39    23    36    1
40    23    37    1
@<TRIPOS>SUBSTRUCTURE
1   ZINC000011677376 1     RESIDUE    1   A     ZIN   1

@<TRIPOS>MOLECULE
ZINC000011677376
37    40    1     0     0
SMALL
USER_CHARGES
@<TRIPOS>ATOM
1      C1      5.3661    4.6060    2.3502 C.3      1 ZINC000011677376   -0.0400
2      N2      4.6526    4.6393    1.0665 N.4      1 ZINC000011677376   -0.4000
3      H3      5.2488    4.2973    0.3278 H        1 ZINC000011677376    0.4300
4      C4      3.4124    3.8203    1.1474 C.3      1 ZINC000011677376    0.0000
5      C5      2.5277    4.4391    0.0366 C.3      1 ZINC000011677376   -0.0400
6      H6      3.0084    4.0825   -0.8743 H        1 ZINC000011677376    0.1000
7      C7      1.1847    3.8392    0.0114 C.ar     1 ZINC000011677376   -0.1400
8      C8      1.1573    2.4383    0.0041 C.ar     1 ZINC000011677376   -0.0900
9      C9     -0.0215    1.7317    0.0116 C.ar     1 ZINC000011677376   -0.0500
10     Cl10    0.0021   -0.0041    0.0020 Cl       1 ZINC000011677376   -0.0500
11     C11    -1.2273    2.4106    0.0210 C.ar     1 ZINC000011677376   -0.0600
12     C12    -1.2200    3.7852    0.0269 C.ar     1 ZINC000011677376   -0.1200
13     C13    -0.0222    4.5109    0.0117 C.ar     1 ZINC000011677376    0.1800
14     O14    -0.1515    5.8329   -0.0236 O.3      1 ZINC000011677376   -0.2800
15     C15     0.5239    6.8034    0.5791 C.ar     1 ZINC000011677376    0.1600
16     C16    -0.2539    7.8231    1.1498 C.ar     1 ZINC000011677376   -0.1300
17     C17     0.3309    8.8638    1.8324 C.ar     1 ZINC000011677376   -0.0800
18     C18     1.7069    8.9070    1.9614 C.ar     1 ZINC000011677376   -0.1200
19     C19     2.4742    7.9165    1.3913 C.ar     1 ZINC000011677376   -0.1200
20     C20     1.8886    6.8652    0.6821 C.ar     1 ZINC000011677376   -0.1500
21     C21     2.8285    5.8902    0.0700 C.3      1 ZINC000011677376   -0.0500
22     H22     2.9770    6.1974   -0.9653 H        1 ZINC000011677376    0.1200
23     C23     4.2076    6.0200    0.7654 C.3      1 ZINC000011677376   -0.0200
24     H24     4.7021    4.9482    3.1439 H        1 ZINC000011677376    0.1200
25     H25     5.6882    3.5861    2.5604 H        1 ZINC000011677376    0.1300
26     H26     6.2374    5.2588    2.2987 H        1 ZINC000011677376    0.1300
27     H27     3.6256    2.7729    0.9338 H        1 ZINC000011677376    0.1400
28     H28     2.9418    3.9262    2.1249 H        1 ZINC000011677376    0.1400
29     H29     2.0916    1.8968   -0.0081 H        1 ZINC000011677376    0.1400
30     H30    -2.1610    1.8680    0.0279 H        1 ZINC000011677376    0.1500
31     H31    -2.1595    4.3178    0.0390 H        1 ZINC000011677376    0.1500
32     H32    -1.3289    7.7900    1.0508 H        1 ZINC000011677376    0.1400
33     H33    -0.2804    9.6421    2.2648 H        1 ZINC000011677376    0.1400
34     H34     2.1766    9.7125    2.5062 H        1 ZINC000011677376    0.1400
35     H35     3.5486    7.9527    1.4945 H        1 ZINC000011677376    0.1300
36     H36     4.9193    6.5057    0.0979 H        1 ZINC000011677376    0.1400
37     H37     4.1093    6.5922    1.6879 H        1 ZINC000011677376    0.1500
@<TRIPOS>BOND
1     1     2     1
2     1     24    1
3     1     25    1
4     1     26    1
5     2     3     1
6     2     23    1
7     2     4     1
8     4     5     1
9     4     27    1
10    4     28    1
11    5     6     1
12    5     21    1
13    5     7     1
14    7     13    ar
15    7     8     ar
16    8     9     ar
17    8     29    1
18    9     10    1
19    9     11    ar
20    11    12    ar
21    11    30    1
22    12    13    ar
23    12    31    1
24    13    14    1
25    14    15    1
26    15    20    ar
27    15    16    ar
28    16    17    ar
29    16    32    1
30    17    18    ar
31    17    33    1
32    18    19    ar
33    18    34    1
34    19    20    ar
35    19    35    1
36    20    21    1
37    21    22    1
38    21    23    1
39    23    36    1
40    23    37    1
@<TRIPOS>SUBSTRUCTURE
1   ZINC000011677376 1     RESIDUE    1   A     ZIN   1
