@<TRIPOS>MOLECULE
ZINC000021303210
  28   30    0    0    0
SMALL
USER_CHARGES
NO_NAME
@<TRIPOS>ATOM
    1 Br1       0.0610     0.1174     0.8365 Br     1 <0>       0.0200
    2 C2        0.0043     1.9436     0.3491 C.ar   1 <0>      -0.0600
    3 C3       -1.2156     2.6395     0.3553 C.ar   1 <0>       0.1100
    4 N4       -2.3551     2.0307     0.7034 N.ar   1 <0>      -0.4200
    5 C5       -3.4816     2.7065     0.7005 C.ar   1 <0>       0.1100
    6 C6       -3.5032     4.0545     0.3378 C.ar   1 <0>       0.1000
    7 N7       -2.3979     4.6745    -0.0079 N.ar   1 <0>      -0.4100
    8 C8       -1.2378     4.0094    -0.0132 C.ar   1 <0>       0.0800
    9 C9       -0.0395     4.6480    -0.3787 C.ar   1 <0>      -0.0100
   10 C10       1.1283     3.9526    -0.3771 C.ar   1 <0>      -0.1500
   11 C11       1.1607     2.6023    -0.0092 C.ar   1 <0>       0.1500
   12 N12       2.3765     1.9119    -0.0164 N.pl3  1 <0>      -0.6300
   13 C13       3.5086     2.5133     0.4668 C.cat  1 <0>       0.7200
   14 N14       3.4924     3.6971     1.0574 N.pl3  1 <0>      -0.6700
   15 H15       2.7028     4.2412     1.2033 H      1 <0>       0.4600
   16 C16       4.8614     4.0578     1.4579 C.3    1 <0>       0.0700
   17 C17       5.7017     2.8528     0.9889 C.3    1 <0>       0.0800
   18 N18       4.7050     1.9546     0.3852 N.pl3  1 <0>      -0.6600
   19 H19      -4.4008     2.2141     0.9813 H      1 <0>       0.1900
   20 H20      -4.4391     4.5934     0.3410 H      1 <0>       0.1900
   21 H21      -0.0472     5.6905    -0.6609 H      1 <0>       0.1700
   22 H22       2.0446     4.4499    -0.6590 H      1 <0>       0.1500
   23 H23       2.4184     1.0071    -0.3635 H      1 <0>       0.4500
   24 H24       5.1817     4.9691     0.9529 H      1 <0>       0.1300
   25 H25       4.9270     4.1739     2.5397 H      1 <0>       0.1300
   26 H26       6.4405     3.1640     0.2504 H      1 <0>       0.1300
   27 H27       6.1857     2.3688     1.8372 H      1 <0>       0.1300
   28 H28       4.8958     1.0918    -0.0149 H      1 <0>       0.4600
@<TRIPOS>BOND
   1    1    2 1
   2    2   11 ar
   3    2    3 ar
   4    3    8 ar
   5    3    4 ar
   6    4    5 ar
   7    5    6 ar
   8    5   19 1
   9    6    7 ar
  10    6   20 1
  11    7    8 ar
  12    8    9 ar
  13    9   10 ar
  14    9   21 1
  15   10   11 ar
  16   10   22 1
  17   11   12 1
  18   12   13 ar
  19   12   23 1
  20   13   18 ar
  21   13   14 ar
  22   14   15 1
  23   14   16 1
  24   16   17 1
  25   16   24 1
  26   16   25 1
  27   17   18 1
  28   17   26 1
  29   17   27 1
  30   18   28 1

@<TRIPOS>MOLECULE
ZINC000021303210
  27   29    0    0    0
SMALL
USER_CHARGES
NO_NAME
@<TRIPOS>ATOM
    1 Br1      -0.0092     0.0100    -0.0364 Br     1 <0>      -0.0200
    2 C2       -0.0238     1.9009    -0.0245 C.ar   1 <0>      -0.1300
    3 C3       -1.2427     2.5985    -0.0214 C.ar   1 <0>       0.1300
    4 N4       -2.4108     1.9459    -0.0261 N.ar   1 <0>      -0.4200
    5 C5       -3.5357     2.6244    -0.0227 C.ar   1 <0>       0.0900
    6 C6       -3.5260     4.0204    -0.0146 C.ar   1 <0>       0.0600
    7 N7       -2.3924     4.6840    -0.0098 N.ar   1 <0>      -0.4100
    8 C8       -1.2332     4.0172    -0.0126 C.ar   1 <0>       0.0600
    9 C9       -0.0049     4.7019    -0.0070 C.ar   1 <0>      -0.0400
   10 C10       1.1614     4.0040    -0.0097 C.ar   1 <0>      -0.1100
   11 C11       1.1617     2.6039    -0.0131 C.ar   1 <0>       0.2500
   12 N12       2.3761     1.9123    -0.0154 N.pl3  1 <0>      -0.6500
   13 C13       3.5132     2.5166     0.4714 C.2    1 <0>       0.5900
   14 N14       3.5008     3.6731     1.0495 N.2    1 <0>      -0.6100
   15 C15       4.8616     4.0480     1.4579 C.3    1 <0>       0.0400
   16 C16       5.7294     2.8582     1.0017 C.3    1 <0>       0.0900
   17 N17       4.7522     1.9422     0.3900 N.pl3  1 <0>      -0.7600
   18 H18      -4.4780     2.0967    -0.0265 H      1 <0>       0.1800
   19 H19      -4.4611     4.5609    -0.0127 H      1 <0>       0.1800
   20 H20       0.0116     5.7817    -0.0010 H      1 <0>       0.1500
   21 H21       2.1008     4.5368    -0.0053 H      1 <0>       0.1800
   22 H22       2.4178     1.0066    -0.3599 H      1 <0>       0.4200
   23 H23       5.1731     4.9633     0.9547 H      1 <0>       0.0900
   24 H24       4.9164     4.1681     2.5399 H      1 <0>       0.0900
   25 H25       6.4698     3.1807     0.2696 H      1 <0>       0.0800
   26 H26       6.2128     2.3848     1.8562 H      1 <0>       0.0800
   27 H27       4.9535     1.0806    -0.0077 H      1 <0>       0.4100
@<TRIPOS>BOND
   1    1    2 1
   2    2   11 ar
   3    2    3 ar
   4    3    8 ar
   5    3    4 ar
   6    4    5 ar
   7    5    6 ar
   8    5   18 1
   9    6    7 ar
  10    6   19 1
  11    7    8 ar
  12    8    9 ar
  13    9   10 ar
  14    9   20 1
  15   10   11 ar
  16   10   21 1
  17   11   12 1
  18   12   13 1
  19   12   22 1
  20   13   17 1
  21   13   14 2
  22   14   15 1
  23   15   16 1
  24   15   23 1
  25   15   24 1
  26   16   17 1
  27   16   25 1
  28   16   26 1
  29   17   27 1
