@<TRIPOS>MOLECULE
ZINC000003806721
44    48    1     0     0
SMALL
USER_CHARGES
@<TRIPOS>ATOM
1      C1     -0.8148    1.3508    1.7498 C.3      1 ZINC000003806721    0.0200
2      O2     -0.6403   -0.0313    1.4313 O.3      1 ZINC000003806721   -0.3000
3      C3     -1.7651   -0.7549    1.1847 C.ar     1 ZINC000003806721    0.1300
4      C4     -3.0305   -0.1734    1.2343 C.ar     1 ZINC000003806721   -0.1700
5      C5     -4.2038   -0.8735    1.0002 C.ar     1 ZINC000003806721   -0.1000
6      C6     -4.1578   -2.2190    0.6833 C.ar     1 ZINC000003806721   -0.0900
7      C7     -5.3455   -3.1029    0.4815 C.3      1 ZINC000003806721   -0.0900
8      C8     -4.9819   -4.5149    0.0548 C.3      1 ZINC000003806721    0.0500
9      H9     -5.7953   -5.1762    0.3535 H        1 ZINC000003806721    0.1400
10     C10    -3.6919   -5.0607    0.6504 C.3      1 ZINC000003806721   -0.0500
11     H11    -3.5272   -6.0429    0.2074 H        1 ZINC000003806721    0.1000
12     C12    -3.7193   -5.2447    2.1228 C.2      1 ZINC000003806721   -0.1300
13     C13    -2.7001   -4.9616    2.8704 C.2      1 ZINC000003806721   -0.1500
14     C14    -1.4140   -4.3671    2.4257 C.3      1 ZINC000003806721    0.1100
15     H15    -0.5989   -4.9411    2.8665 H        1 ZINC000003806721    0.0800
16     O16    -1.3402   -3.0289    2.9214 O.3      1 ZINC000003806721   -0.5400
17     C17    -1.2123   -4.3285    0.9062 C.3      1 ZINC000003806721    0.1100
18     H18    -0.5825   -5.1351    0.5310 H        1 ZINC000003806721    0.1500
19     O19    -0.6628   -2.9786    0.6743 O.3      1 ZINC000003806721   -0.2800
20     C20    -1.7036   -2.1145    0.8642 C.ar     1 ZINC000003806721    0.1500
21     C21    -2.9009   -2.7667    0.5987 C.ar     1 ZINC000003806721   -0.1600
22     C22    -2.5517   -4.1781    0.2001 C.3      1 ZINC000003806721   -0.0600
23     C23    -2.4302   -4.2348   -1.3248 C.3      1 ZINC000003806721   -0.1300
24     C24    -3.7649   -3.7414   -1.9035 C.3      1 ZINC000003806721   -0.0100
25     N25    -4.8589   -4.5857   -1.4108 N.4      1 ZINC000003806721   -0.3800
26     H26    -4.7050   -5.5352   -1.7153 H        1 ZINC000003806721    0.4300
27     C27    -6.1276   -4.1022   -1.9717 C.3      1 ZINC000003806721   -0.0600
28     H28     0.1587    1.8094    1.9232 H        1 ZINC000003806721    0.1100
29     H29    -1.3114    1.8548    0.9206 H        1 ZINC000003806721    0.0600
30     H30    -1.4249    1.4424    2.6484 H        1 ZINC000003806721    0.0600
31     H31    -3.1009    0.8787    1.4679 H        1 ZINC000003806721    0.1300
32     H32    -5.1557   -0.3674    1.0657 H        1 ZINC000003806721    0.1300
33     H33    -5.9060   -3.1535    1.4150 H        1 ZINC000003806721    0.1200
34     H34    -5.9843   -2.6606   -0.2829 H        1 ZINC000003806721    0.1000
35     H35    -4.6174   -5.6263    2.5856 H        1 ZINC000003806721    0.1300
36     H36    -2.7954   -5.1796    3.9239 H        1 ZINC000003806721    0.1200
37     H37    -1.3774   -2.9640    3.8855 H        1 ZINC000003806721    0.3800
38     H38    -1.6191   -3.5869   -1.6571 H        1 ZINC000003806721    0.1200
39     H39    -2.2429   -5.2598   -1.6447 H        1 ZINC000003806721    0.1000
40     H40    -3.9212   -2.7039   -1.6080 H        1 ZINC000003806721    0.1400
41     H41    -3.7270   -3.8008   -2.9913 H        1 ZINC000003806721    0.1300
42     H42    -6.1572   -4.3155   -3.0403 H        1 ZINC000003806721    0.1300
43     H43    -6.9586   -4.6056   -1.4776 H        1 ZINC000003806721    0.1300
44     H44    -6.2085   -3.0268   -1.8136 H        1 ZINC000003806721    0.1300
@<TRIPOS>BOND
1     1     2     1
2     1     28    1
3     1     29    1
4     1     30    1
5     2     3     1
6     3     20    ar
7     3     4     ar
8     4     5     ar
9     4     31    1
10    5     6     ar
11    5     32    1
12    6     21    ar
13    6     7     1
14    7     8     1
15    7     33    1
16    7     34    1
17    8     9     1
18    8     25    1
19    8     10    1
20    10    11    1
21    10    22    1
22    10    12    1
23    12    13    2
24    12    35    1
25    13    14    1
26    13    36    1
27    14    15    1
28    14    16    1
29    14    17    1
30    16    37    1
31    17    18    1
32    17    22    1
33    17    19    1
34    19    20    1
35    20    21    ar
36    21    22    1
37    22    23    1
38    23    24    1
39    23    38    1
40    23    39    1
41    24    25    1
42    24    40    1
43    24    41    1
44    25    26    1
45    25    27    1
46    27    42    1
47    27    43    1
48    27    44    1
@<TRIPOS>SUBSTRUCTURE
1   ZINC000003806721 1     RESIDUE    1   A     ZIN   1

@<TRIPOS>MOLECULE
ZINC000003806721
44    48    1     0     0
SMALL
USER_CHARGES
@<TRIPOS>ATOM
1      C1     -0.0173    1.4248    0.0099 C.3      1 ZINC000003806721    0.0200
2      O2      0.0021   -0.0041    0.0020 O.3      1 ZINC000003806721   -0.3000
3      C3     -1.2011   -0.6379    0.0101 C.ar     1 ZINC000003806721    0.1300
4      C4     -2.3991    0.0739    0.0195 C.ar     1 ZINC000003806721   -0.1700
5      C5     -3.6472   -0.5292    0.0379 C.ar     1 ZINC000003806721   -0.1000
6      C6     -3.7517   -1.9083    0.0328 C.ar     1 ZINC000003806721   -0.0900
7      C7     -5.0273   -2.6810    0.1255 C.3      1 ZINC000003806721   -0.0800
8      C8     -4.8335   -4.1830    0.0053 C.3      1 ZINC000003806721    0.0500
9      H9     -5.6700   -4.6708    0.5057 H        1 ZINC000003806721    0.1400
10     C10    -3.5460   -4.7216    0.6125 C.3      1 ZINC000003806721   -0.0500
11     H11    -3.5127   -5.7889    0.3935 H        1 ZINC000003806721    0.1000
12     C12    -3.4478   -4.5749    2.0861 C.2      1 ZINC000003806721   -0.1300
13     C13    -2.3403   -4.2471    2.6724 C.2      1 ZINC000003806721   -0.1500
14     C14    -1.0551   -3.9072    2.0104 C.3      1 ZINC000003806721    0.1100
15     H15    -0.2558   -4.4557    2.5088 H        1 ZINC000003806721    0.0800
16     O16    -0.8153   -2.5090    2.1821 O.3      1 ZINC000003806721   -0.5300
17     C17    -0.9979   -4.2242    0.5114 C.3      1 ZINC000003806721    0.1100
18     H18    -0.4815   -5.1567    0.2839 H        1 ZINC000003806721    0.1500
19     O19    -0.3554   -3.0254   -0.0613 O.3      1 ZINC000003806721   -0.2800
20     C20    -1.2920   -2.0332    0.0035 C.ar     1 ZINC000003806721    0.1500
21     C21    -2.5625   -2.5941   -0.0177 C.ar     1 ZINC000003806721   -0.1600
22     C22    -2.3804   -4.0878   -0.1096 C.3      1 ZINC000003806721   -0.0600
23     C23    -2.4117   -4.4896   -1.5864 C.3      1 ZINC000003806721   -0.1300
24     C24    -3.7466   -3.9932   -2.1620 C.3      1 ZINC000003806721   -0.0100
25     N25    -4.8589   -4.5857   -1.4108 N.4      1 ZINC000003806721   -0.3800
26     H26    -5.7304   -4.2545   -1.7968 H        1 ZINC000003806721    0.4300
27     C27    -4.8015   -6.0476   -1.5421 C.3      1 ZINC000003806721   -0.0600
28     H28     1.0053    1.8021    0.0021 H        1 ZINC000003806721    0.1100
29     H29    -0.5445    1.7859   -0.8732 H        1 ZINC000003806721    0.0600
30     H30    -0.5275    1.7763    0.9067 H        1 ZINC000003806721    0.0600
31     H31    -2.3528    1.1529    0.0123 H        1 ZINC000003806721    0.1300
32     H32    -4.5395    0.0790    0.0567 H        1 ZINC000003806721    0.1300
33     H33    -5.4976   -2.4651    1.0848 H        1 ZINC000003806721    0.1200
34     H34    -5.6948   -2.3502   -0.6702 H        1 ZINC000003806721    0.1000
35     H35    -4.3276   -4.7465    2.6885 H        1 ZINC000003806721    0.1300
36     H36    -2.3529   -4.2177    3.7519 H        1 ZINC000003806721    0.1200
37     H37    -0.7536   -2.2311    3.1062 H        1 ZINC000003806721    0.3800
38     H38    -1.5818   -4.0219   -2.1162 H        1 ZINC000003806721    0.1200
39     H39    -2.3480   -5.5739   -1.6778 H        1 ZINC000003806721    0.1000
40     H40    -3.7808   -2.9056   -2.0994 H        1 ZINC000003806721    0.1400
41     H41    -3.8189   -4.2930   -3.2074 H        1 ZINC000003806721    0.1300
42     H42    -3.8544   -6.4113   -1.1435 H        1 ZINC000003806721    0.1200
43     H43    -5.6254   -6.4951   -0.9862 H        1 ZINC000003806721    0.1300
44     H44    -4.8819   -6.3214   -2.5941 H        1 ZINC000003806721    0.1300
@<TRIPOS>BOND
1     1     2     1
2     1     28    1
3     1     29    1
4     1     30    1
5     2     3     1
6     3     20    ar
7     3     4     ar
8     4     5     ar
9     4     31    1
10    5     6     ar
11    5     32    1
12    6     21    ar
13    6     7     1
14    7     8     1
15    7     33    1
16    7     34    1
17    8     9     1
18    8     25    1
19    8     10    1
20    10    11    1
21    10    22    1
22    10    12    1
23    12    13    2
24    12    35    1
25    13    14    1
26    13    36    1
27    14    15    1
28    14    16    1
29    14    17    1
30    16    37    1
31    17    18    1
32    17    22    1
33    17    19    1
34    19    20    1
35    20    21    ar
36    21    22    1
37    22    23    1
38    23    24    1
39    23    38    1
40    23    39    1
41    24    25    1
42    24    40    1
43    24    41    1
44    25    26    1
45    25    27    1
46    27    42    1
47    27    43    1
48    27    44    1
@<TRIPOS>SUBSTRUCTURE
1   ZINC000003806721 1     RESIDUE    1   A     ZIN   1
