@<TRIPOS>MOLECULE
ZINC000000001931
41    42    1     0     0
SMALL
USER_CHARGES
@<TRIPOS>ATOM
1      C1     -0.0178    1.4648    0.0101 C.3      1 ZINC000000001931   -0.0500
2      N2      0.0021   -0.0041    0.0020 N.4      1 ZINC000000001931   -0.3900
3      H3     -0.9445   -0.3533    0.0092 H        1 ZINC000000001931    0.4300
4      C4      0.6897   -0.4778   -1.2066 C.3      1 ZINC000000001931   -0.0500
5      C5      0.7126   -0.4907    1.1921 C.3      1 ZINC000000001931    0.0000
6      C6     -0.0711   -0.1034    2.4478 C.3      1 ZINC000000001931    0.0200
7      O7     -1.3280   -0.7834    2.4535 O.3      1 ZINC000000001931   -0.3200
8      C8     -2.1519   -0.5481    3.5084 C.ar     1 ZINC000000001931    0.1200
9      C9     -1.7613    0.3235    4.5142 C.ar     1 ZINC000000001931   -0.2000
10     C10    -2.6010    0.5614    5.5853 C.ar     1 ZINC000000001931   -0.0800
11     C11    -3.8294   -0.0689    5.6554 C.ar     1 ZINC000000001931   -0.1400
12     C12    -4.2209   -0.9387    4.6541 C.ar     1 ZINC000000001931   -0.0800
13     C13    -3.3878   -1.1751    3.5782 C.ar     1 ZINC000000001931   -0.1000
14     C14    -3.8153   -2.1227    2.4872 C.3      1 ZINC000000001931   -0.0300
15     C15    -3.2530   -3.4933    2.7634 C.ar     1 ZINC000000001931   -0.0800
16     C16    -2.0102   -3.8430    2.2692 C.ar     1 ZINC000000001931   -0.1100
17     C17    -1.4944   -5.1002    2.5226 C.ar     1 ZINC000000001931   -0.1200
18     C18    -2.2212   -6.0076    3.2705 C.ar     1 ZINC000000001931   -0.1200
19     C19    -3.4635   -5.6576    3.7654 C.ar     1 ZINC000000001931   -0.1100
20     C20    -3.9775   -4.3989    3.5156 C.ar     1 ZINC000000001931   -0.1100
21     H21     1.0047    1.8421    0.0024 H        1 ZINC000000001931    0.1200
22     H22    -0.5450    1.8259   -0.8730 H        1 ZINC000000001931    0.1300
23     H23    -0.5280    1.8163    0.9069 H        1 ZINC000000001931    0.1200
24     H24     1.7123   -0.1005   -1.2143 H        1 ZINC000000001931    0.1200
25     H25     0.7044   -1.5677   -1.2126 H        1 ZINC000000001931    0.1200
26     H26     0.1625   -0.1167   -2.0897 H        1 ZINC000000001931    0.1300
27     H27     0.8051   -1.5756    1.1418 H        1 ZINC000000001931    0.1400
28     H28     1.7055   -0.0428    1.2310 H        1 ZINC000000001931    0.1500
29     H29     0.4987   -0.3857    3.3332 H        1 ZINC000000001931    0.1100
30     H30    -0.2405    0.9733    2.4528 H        1 ZINC000000001931    0.0900
31     H31    -0.8014    0.8156    4.4602 H        1 ZINC000000001931    0.1300
32     H32    -2.2973    1.2400    6.3687 H        1 ZINC000000001931    0.1300
33     H33    -4.4841    0.1180    6.4936 H        1 ZINC000000001931    0.1300
34     H34    -5.1809   -1.4302    4.7113 H        1 ZINC000000001931    0.1300
35     H35    -4.9036   -2.1756    2.4578 H        1 ZINC000000001931    0.0900
36     H36    -3.4430   -1.7638    1.5277 H        1 ZINC000000001931    0.0800
37     H37    -1.4424   -3.1340    1.6849 H        1 ZINC000000001931    0.1100
38     H38    -0.5238   -5.3736    2.1359 H        1 ZINC000000001931    0.1200
39     H39    -1.8185   -6.9901    3.4678 H        1 ZINC000000001931    0.1200
40     H40    -4.0315   -6.3667    4.3494 H        1 ZINC000000001931    0.1300
41     H41    -4.9481   -4.1255    3.9023 H        1 ZINC000000001931    0.1200
@<TRIPOS>BOND
1     1     2     1
2     1     21    1
3     1     22    1
4     1     23    1
5     2     3     1
6     2     4     1
7     2     5     1
8     4     24    1
9     4     25    1
10    4     26    1
11    5     6     1
12    5     27    1
13    5     28    1
14    6     7     1
15    6     29    1
16    6     30    1
17    7     8     1
18    8     13    ar
19    8     9     ar
20    9     10    ar
21    9     31    1
22    10    11    ar
23    10    32    1
24    11    12    ar
25    11    33    1
26    12    13    ar
27    12    34    1
28    13    14    1
29    14    15    1
30    14    35    1
31    14    36    1
32    15    20    ar
33    15    16    ar
34    16    17    ar
35    16    37    1
36    17    18    ar
37    17    38    1
38    18    19    ar
39    18    39    1
40    19    20    ar
41    19    40    1
42    20    41    1
@<TRIPOS>SUBSTRUCTURE
1   ZINC000000001931 1     RESIDUE    1   A     ZIN   1

@<TRIPOS>MOLECULE
ZINC000000001931
40    41    1     0     0
SMALL
USER_CHARGES
@<TRIPOS>ATOM
1      C1     -0.0178    1.4648    0.0101 C.3      1 ZINC000000001931    0.0200
2      N2      0.0021   -0.0041    0.0020 N.3      1 ZINC000000001931   -0.5400
3      C3      0.7062   -0.5275    1.1802 C.3      1 ZINC000000001931    0.0200
4      C4     -1.3597   -0.5486   -0.0825 C.3      1 ZINC000000001931    0.0500
5      C5     -1.9710   -0.1854   -1.4372 C.3      1 ZINC000000001931    0.0600
6      O6     -1.2392   -0.8339   -2.4793 O.3      1 ZINC000000001931   -0.2900
7      C7     -1.6557   -0.6148   -3.7542 C.ar     1 ZINC000000001931    0.1400
8      C8     -2.7425    0.2120   -3.9976 C.ar     1 ZINC000000001931   -0.2100
9      C9     -3.1637    0.4336   -5.2947 C.ar     1 ZINC000000001931   -0.0800
10     C10    -2.5031   -0.1682   -6.3495 C.ar     1 ZINC000000001931   -0.1600
11     C11    -1.4196   -0.9933   -6.1095 C.ar     1 ZINC000000001931   -0.0800
12     C12    -0.9908   -1.2131   -4.8150 C.ar     1 ZINC000000001931   -0.1100
13     C13     0.1903   -2.1119   -4.5541 C.3      1 ZINC000000001931   -0.0300
14     C14    -0.2965   -3.5046   -4.2468 C.ar     1 ZINC000000001931   -0.0700
15     C15    -0.5738   -3.8677   -2.9421 C.ar     1 ZINC000000001931   -0.1000
16     C16    -1.0203   -5.1452   -2.6601 C.ar     1 ZINC000000001931   -0.1200
17     C17    -1.1899   -6.0595   -3.6829 C.ar     1 ZINC000000001931   -0.1300
18     C18    -0.9135   -5.6962   -4.9877 C.ar     1 ZINC000000001931   -0.1200
19     C19    -0.4711   -4.4174   -5.2702 C.ar     1 ZINC000000001931   -0.1200
20     H20     1.0047    1.8421    0.0024 H        1 ZINC000000001931    0.0700
21     H21    -0.5450    1.8259   -0.8730 H        1 ZINC000000001931    0.0700
22     H22    -0.5280    1.8163    0.9069 H        1 ZINC000000001931    0.0300
23     H23     0.1617   -0.2488    2.0824 H        1 ZINC000000001931    0.0300
24     H24     0.7676   -1.6137    1.1140 H        1 ZINC000000001931    0.0700
25     H25     1.7116   -0.1084    1.2186 H        1 ZINC000000001931    0.0700
26     H26    -1.3244   -1.6331    0.0212 H        1 ZINC000000001931    0.0900
27     H27    -1.9698   -0.1268    0.7163 H        1 ZINC000000001931    0.0600
28     H28    -3.0106   -0.5117   -1.4659 H        1 ZINC000000001931    0.0700
29     H29    -1.9251    0.8944   -1.5788 H        1 ZINC000000001931    0.0600
30     H30    -3.2593    0.6819   -3.1738 H        1 ZINC000000001931    0.1200
31     H31    -4.0098    1.0773   -5.4847 H        1 ZINC000000001931    0.1200
32     H32    -2.8341    0.0059   -7.3627 H        1 ZINC000000001931    0.1200
33     H33    -0.9054   -1.4626   -6.9352 H        1 ZINC000000001931    0.1300
34     H34     0.8297   -2.1370   -5.4366 H        1 ZINC000000001931    0.0800
35     H35     0.7573   -1.7296   -3.7054 H        1 ZINC000000001931    0.0900
36     H36    -0.4412   -3.1533   -2.1430 H        1 ZINC000000001931    0.1300
37     H37    -1.2362   -5.4290   -1.6407 H        1 ZINC000000001931    0.1200
38     H38    -1.5381   -7.0578   -3.4626 H        1 ZINC000000001931    0.1200
39     H39    -1.0457   -6.4106   -5.7868 H        1 ZINC000000001931    0.1200
40     H40    -0.2551   -4.1335   -6.2896 H        1 ZINC000000001931    0.1200
@<TRIPOS>BOND
1     1     2     1
2     1     20    1
3     1     21    1
4     1     22    1
5     2     3     1
6     2     4     1
7     3     23    1
8     3     24    1
9     3     25    1
10    4     5     1
11    4     26    1
12    4     27    1
13    5     6     1
14    5     28    1
15    5     29    1
16    6     7     1
17    7     12    ar
18    7     8     ar
19    8     9     ar
20    8     30    1
21    9     10    ar
22    9     31    1
23    10    11    ar
24    10    32    1
25    11    12    ar
26    11    33    1
27    12    13    1
28    13    14    1
29    13    34    1
30    13    35    1
31    14    19    ar
32    14    15    ar
33    15    16    ar
34    15    36    1
35    16    17    ar
36    16    37    1
37    17    18    ar
38    17    38    1
39    18    19    ar
40    18    39    1
41    19    40    1
@<TRIPOS>SUBSTRUCTURE
1   ZINC000000001931 1     RESIDUE    1   A     ZIN   1
