@<TRIPOS>MOLECULE
ZINC000001543475
32    33    1     0     0
SMALL
USER_CHARGES
@<TRIPOS>ATOM
1      C1     -0.2633    1.3341   -0.4767 C.3      1 ZINC000001543475   -0.1700
2      C2     -0.2193   -0.1830   -0.2833 C.3      1 ZINC000001543475    0.0300
3      H3      0.4891   -0.4280    0.5080 H        1 ZINC000001543475    0.1100
4      C4      0.2217   -0.8508   -1.5873 C.3      1 ZINC000001543475    0.1300
5      N5      0.3791   -2.2909   -1.3695 N.pl3    1 ZINC000001543475   -0.4700
6      C6      1.5386   -2.9380   -1.0609 C.2      1 ZINC000001543475    0.2600
7      N7      1.3163   -4.2144   -0.9379 N.2      1 ZINC000001543475   -0.4700
8      C8      0.0038   -4.4669   -1.1592 C.ar     1 ZINC000001543475   -0.0800
9      C9     -0.7928   -5.6243   -1.1633 C.ar     1 ZINC000001543475    0.5100
10     N10    -0.2409   -6.8646   -0.8946 N.pl3    1 ZINC000001543475   -0.8300
11     N11    -2.0888   -5.5002   -1.4307 N.ar     1 ZINC000001543475   -0.6000
12     C12    -2.6241   -4.3208   -1.6877 C.ar     1 ZINC000001543475    0.3500
13     N13    -1.9170   -3.2103   -1.6953 N.ar     1 ZINC000001543475   -0.5400
14     C14    -0.6144   -3.2350   -1.4329 C.ar     1 ZINC000001543475    0.3400
15     O15    -1.5189   -0.6550    0.0778 O.3      1 ZINC000001543475   -0.3300
16     C16    -1.7885   -0.5993    1.4800 C.3      1 ZINC000001543475   -0.5300
17     P17    -0.8973   -1.9471    2.3242 P.3      1 ZINC000001543475    2.2100
18     O18    -1.2636   -3.2970    1.6679 O.2      1 ZINC000001543475   -1.0600
19     O19     0.6250   -1.7123    2.2040 O.3      1 ZINC000001543475   -1.0800
20     O20    -1.3149   -1.9754    3.8789 O.3      1 ZINC000001543475   -0.9100
21     H21     0.7413    1.7034   -0.6826 H        1 ZINC000001543475    0.0700
22     H22    -0.9176    1.5747   -1.3146 H        1 ZINC000001543475    0.0600
23     H23    -0.6450    1.8050    0.4292 H        1 ZINC000001543475    0.0500
24     H24    -0.5320   -0.6798   -2.3560 H        1 ZINC000001543475    0.0900
25     H25     1.1723   -0.4260   -1.9097 H        1 ZINC000001543475    0.1000
26     H26     2.5000   -2.4618   -0.9373 H        1 ZINC000001543475    0.2100
27     H27     0.7063   -6.9423   -0.7005 H        1 ZINC000001543475    0.4100
28     H28    -0.8013   -7.6564   -0.9004 H        1 ZINC000001543475    0.4000
29     H29    -3.6815   -4.2650   -1.9000 H        1 ZINC000001543475    0.1900
30     H30    -1.4560    0.3601    1.8762 H        1 ZINC000001543475    0.0400
31     H31    -2.8597   -0.7105    1.6487 H        1 ZINC000001543475    0.0800
32     H32    -0.8778   -2.6695    4.3909 H        1 ZINC000001543475    0.4100
@<TRIPOS>BOND
1     1     2     1
2     1     21    1
3     1     22    1
4     1     23    1
5     2     3     1
6     2     4     1
7     2     15    1
8     4     5     1
9     4     24    1
10    4     25    1
11    5     14    1
12    5     6     1
13    6     7     2
14    6     26    1
15    7     8     1
16    8     14    ar
17    8     9     ar
18    9     10    1
19    9     11    ar
20    10    27    1
21    10    28    1
22    11    12    ar
23    12    13    ar
24    12    29    1
25    13    14    ar
26    15    16    1
27    16    17    1
28    16    30    1
29    16    31    1
30    17    18    2
31    17    19    1
32    17    20    1
33    20    32    1
@<TRIPOS>SUBSTRUCTURE
1   ZINC000001543475 1     RESIDUE    1   A     ZIN   1

@<TRIPOS>MOLECULE
ZINC000001543475
32    33    1     0     0
SMALL
USER_CHARGES
@<TRIPOS>ATOM
1      C1     -0.2633    1.3341   -0.4767 C.3      1 ZINC000001543475   -0.1700
2      C2     -0.2193   -0.1830   -0.2833 C.3      1 ZINC000001543475    0.0300
3      H3      0.4891   -0.4280    0.5080 H        1 ZINC000001543475    0.1100
4      C4      0.2217   -0.8508   -1.5873 C.3      1 ZINC000001543475    0.1300
5      N5      0.3791   -2.2909   -1.3695 N.pl3    1 ZINC000001543475   -0.4700
6      C6      1.5386   -2.9380   -1.0609 C.2      1 ZINC000001543475    0.2600
7      N7      1.3163   -4.2144   -0.9379 N.2      1 ZINC000001543475   -0.4700
8      C8      0.0038   -4.4669   -1.1592 C.ar     1 ZINC000001543475   -0.0800
9      C9     -0.7928   -5.6243   -1.1633 C.ar     1 ZINC000001543475    0.5100
10     N10    -0.2409   -6.8646   -0.8946 N.pl3    1 ZINC000001543475   -0.8300
11     N11    -2.0888   -5.5002   -1.4307 N.ar     1 ZINC000001543475   -0.6000
12     C12    -2.6241   -4.3208   -1.6877 C.ar     1 ZINC000001543475    0.3500
13     N13    -1.9170   -3.2103   -1.6953 N.ar     1 ZINC000001543475   -0.5400
14     C14    -0.6144   -3.2350   -1.4329 C.ar     1 ZINC000001543475    0.3400
15     O15    -1.5189   -0.6550    0.0778 O.3      1 ZINC000001543475   -0.3300
16     C16    -1.7885   -0.5993    1.4800 C.3      1 ZINC000001543475   -0.5300
17     P17    -0.8973   -1.9471    2.3242 P.3      1 ZINC000001543475    2.2100
18     O18     0.6250   -1.7123    2.2041 O.2      1 ZINC000001543475   -1.0800
19     O19    -1.2636   -3.2970    1.6679 O.3      1 ZINC000001543475   -1.0600
20     O20    -1.3149   -1.9754    3.8789 O.3      1 ZINC000001543475   -0.9100
21     H21     0.7413    1.7034   -0.6826 H        1 ZINC000001543475    0.0700
22     H22    -0.9176    1.5747   -1.3146 H        1 ZINC000001543475    0.0600
23     H23    -0.6450    1.8050    0.4292 H        1 ZINC000001543475    0.0500
24     H24    -0.5320   -0.6798   -2.3560 H        1 ZINC000001543475    0.0900
25     H25     1.1723   -0.4260   -1.9097 H        1 ZINC000001543475    0.1000
26     H26     2.5000   -2.4618   -0.9373 H        1 ZINC000001543475    0.2100
27     H27     0.7063   -6.9423   -0.7005 H        1 ZINC000001543475    0.4100
28     H28    -0.8013   -7.6564   -0.9005 H        1 ZINC000001543475    0.4000
29     H29    -3.6815   -4.2650   -1.9000 H        1 ZINC000001543475    0.1900
30     H30    -1.4560    0.3601    1.8762 H        1 ZINC000001543475    0.0400
31     H31    -2.8597   -0.7105    1.6487 H        1 ZINC000001543475    0.0800
32     H32    -0.8778   -2.6695    4.3909 H        1 ZINC000001543475    0.4100
@<TRIPOS>BOND
1     1     2     1
2     1     21    1
3     1     22    1
4     1     23    1
5     2     3     1
6     2     4     1
7     2     15    1
8     4     5     1
9     4     24    1
10    4     25    1
11    5     14    1
12    5     6     1
13    6     7     2
14    6     26    1
15    7     8     1
16    8     14    ar
17    8     9     ar
18    9     10    1
19    9     11    ar
20    10    27    1
21    10    28    1
22    11    12    ar
23    12    13    ar
24    12    29    1
25    13    14    ar
26    15    16    1
27    16    17    1
28    16    30    1
29    16    31    1
30    17    18    2
31    17    19    1
32    17    20    1
33    20    32    1
@<TRIPOS>SUBSTRUCTURE
1   ZINC000001543475 1     RESIDUE    1   A     ZIN   1

@<TRIPOS>MOLECULE
ZINC000001543475
31    32    1     0     0
SMALL
USER_CHARGES
@<TRIPOS>ATOM
1      C1      0.5239    1.3427    0.0355 C.3      1 ZINC000001543475   -0.1600
2      C2      0.3640   -0.1764   -0.0510 C.3      1 ZINC000001543475    0.0300
3      H3     -0.6701   -0.4457    0.1643 H        1 ZINC000001543475    0.1200
4      C4      1.2881   -0.8454    0.9684 C.3      1 ZINC000001543475    0.1300
5      N5      1.0490   -2.2908    0.9696 N.pl3    1 ZINC000001543475   -0.4600
6      C6      0.2167   -2.9700    1.8088 C.2      1 ZINC000001543475    0.2700
7      N7      0.2457   -4.2411    1.5310 N.2      1 ZINC000001543475   -0.4700
8      C8      1.0959   -4.4578    0.4988 C.ar     1 ZINC000001543475   -0.0700
9      C9      1.5187   -5.5942   -0.2113 C.ar     1 ZINC000001543475    0.5100
10     N10     1.0352   -6.8504    0.1102 N.pl3    1 ZINC000001543475   -0.8300
11     N11     2.3933   -5.4345   -1.1992 N.ar     1 ZINC000001543475   -0.6000
12     C12     2.8597   -4.2397   -1.5131 C.ar     1 ZINC000001543475    0.3400
13     N13     2.4925   -3.1479   -0.8757 N.ar     1 ZINC000001543475   -0.5300
14     C14     1.6170   -3.2083    0.1223 C.ar     1 ZINC000001543475    0.3500
15     O15     0.7070   -0.6174   -1.3663 O.3      1 ZINC000001543475   -0.3500
16     C16    -0.3739   -0.5594   -2.2992 C.3      1 ZINC000001543475   -0.5400
17     P17    -1.5293   -1.9320   -1.9765 P.3      1 ZINC000001543475    2.1800
18     O18    -0.7461   -3.2887   -1.9928 O.co2    1 ZINC000001543475   -1.1500
19     O19    -2.1989   -1.7323   -0.5743 O.co2    1 ZINC000001543475   -1.1700
20     O20    -2.6360   -1.9546   -3.0852 O.co2    1 ZINC000001543475   -1.1900
21     H21     1.5716    1.6066   -0.1090 H        1 ZINC000001543475    0.0500
22     H22    -0.0801    1.8164   -0.7384 H        1 ZINC000001543475    0.0500
23     H23     0.1943    1.6876    1.0156 H        1 ZINC000001543475    0.0600
24     H24     2.3264   -0.6492    0.7013 H        1 ZINC000001543475    0.0800
25     H25     1.0860   -0.4430    1.9610 H        1 ZINC000001543475    0.0900
26     H26    -0.3784   -2.5198    2.5896 H        1 ZINC000001543475    0.2100
27     H27     0.3968   -6.9540    0.8331 H        1 ZINC000001543475    0.4100
28     H28     1.3347   -7.6273   -0.3875 H        1 ZINC000001543475    0.4000
29     H29     3.5691   -4.1550   -2.3230 H        1 ZINC000001543475    0.1800
30     H30    -0.8979    0.3901   -2.1895 H        1 ZINC000001543475    0.0200
31     H31     0.0166   -0.6439   -3.3134 H        1 ZINC000001543475    0.0600
@<TRIPOS>BOND
1     1     2     1
2     1     21    1
3     1     22    1
4     1     23    1
5     2     3     1
6     2     4     1
7     2     15    1
8     4     5     1
9     4     24    1
10    4     25    1
11    5     14    1
12    5     6     1
13    6     7     2
14    6     26    1
15    7     8     1
16    8     14    ar
17    8     9     ar
18    9     10    1
19    9     11    ar
20    10    27    1
21    10    28    1
22    11    12    ar
23    12    13    ar
24    12    29    1
25    13    14    ar
26    15    16    1
27    16    17    1
28    16    30    1
29    16    31    1
30    17    18    ar
31    17    19    ar
32    17    20    ar
@<TRIPOS>SUBSTRUCTURE
1   ZINC000001543475 1     RESIDUE    1   A     ZIN   1
