@<TRIPOS>MOLECULE
ZINC000035999642
32    33    1     0     0
SMALL
USER_CHARGES
@<TRIPOS>ATOM
1      C1     -0.3859    1.5745   -0.5086 C.3      1 ZINC000035999642    0.0000
2      N2     -0.1097    0.1798   -0.1393 N.3      1 ZINC000035999642   -0.6600
3      C3     -1.3557   -0.5497    0.1316 C.3      1 ZINC000035999642    0.1200
4      C4     -2.0084    0.0062    1.3709 C.ar     1 ZINC000035999642   -0.0700
5      C5     -1.3619    0.9720    2.1185 C.ar     1 ZINC000035999642   -0.0900
6      C6     -1.9606    1.4821    3.2557 C.ar     1 ZINC000035999642   -0.1200
7      C7     -3.2058    1.0261    3.6456 C.ar     1 ZINC000035999642   -0.1000
8      C8     -3.8534    0.0600    2.8986 C.ar     1 ZINC000035999642   -0.1100
9      C9     -3.2576   -0.4463    1.7574 C.ar     1 ZINC000035999642   -0.0100
10     Cl10   -4.0704   -1.6596    0.8188 Cl       1 ZINC000035999642   -0.0700
11     C11    -1.0481   -2.0376    0.3303 C.3      1 ZINC000035999642   -0.1200
12     C12    -0.5147   -2.6253   -0.9773 C.3      1 ZINC000035999642   -0.1300
13     C13    -1.5938   -2.5486   -2.0586 C.3      1 ZINC000035999642   -0.1200
14     C14    -1.9219   -1.0800   -2.3472 C.3      1 ZINC000035999642   -0.1700
15     C15    -2.2949   -0.4057   -1.0454 C.2      1 ZINC000035999642    0.3400
16     O16    -3.3165    0.2308   -0.9482 O.2      1 ZINC000035999642   -0.4300
17     H17     0.5518    2.1269   -0.5692 H        1 ZINC000035999642    0.0800
18     H18    -0.8868    1.6018   -1.4763 H        1 ZINC000035999642    0.0200
19     H19    -1.0277    2.0298    0.2457 H        1 ZINC000035999642    0.0800
20     H20     0.4322   -0.2829   -0.8537 H        1 ZINC000035999642    0.3500
21     H21    -0.3887    1.3283    1.8147 H        1 ZINC000035999642    0.1500
22     H22    -1.4550    2.2369    3.8396 H        1 ZINC000035999642    0.1300
23     H23    -3.6726    1.4244    4.5344 H        1 ZINC000035999642    0.1300
24     H24    -4.8264   -0.2963    3.2034 H        1 ZINC000035999642    0.1300
25     H25    -0.2984   -2.1525    1.1131 H        1 ZINC000035999642    0.0900
26     H26    -1.9591   -2.5617    0.6194 H        1 ZINC000035999642    0.0900
27     H27     0.3604   -2.0602   -1.2981 H        1 ZINC000035999642    0.0700
28     H28    -0.2341   -3.6665   -0.8186 H        1 ZINC000035999642    0.0800
29     H29    -1.2308   -3.0257   -2.9689 H        1 ZINC000035999642    0.0800
30     H30    -2.4919   -3.0606   -1.7129 H        1 ZINC000035999642    0.0700
31     H31    -1.0498   -0.5878   -2.7777 H        1 ZINC000035999642    0.0900
32     H32    -2.7591   -1.0217   -3.0427 H        1 ZINC000035999642    0.0900
@<TRIPOS>BOND
1     1     2     1
2     1     17    1
3     1     18    1
4     1     19    1
5     2     3     1
6     2     20    1
7     3     15    1
8     3     4     1
9     3     11    1
10    4     9     ar
11    4     5     ar
12    5     6     ar
13    5     21    1
14    6     7     ar
15    6     22    1
16    7     8     ar
17    7     23    1
18    8     9     ar
19    8     24    1
20    9     10    1
21    11    12    1
22    11    25    1
23    11    26    1
24    12    13    1
25    12    27    1
26    12    28    1
27    13    14    1
28    13    29    1
29    13    30    1
30    14    15    1
31    14    31    1
32    14    32    1
33    15    16    2
@<TRIPOS>SUBSTRUCTURE
1   ZINC000035999642 1     RESIDUE    1   A     ZIN   1

@<TRIPOS>MOLECULE
ZINC000035999642
33    34    1     0     0
SMALL
USER_CHARGES
@<TRIPOS>ATOM
1      C1     -0.2859    1.5724    0.5822 C.3      1 ZINC000035999642   -0.0700
2      N2     -0.0717    0.1805    0.1642 N.4      1 ZINC000035999642   -0.4900
3      H3     -0.9579   -0.3009    0.1313 H        1 ZINC000035999642    0.4300
4      H4      0.3532    0.1657   -0.7508 H        1 ZINC000035999642    0.4300
5      C5      0.8138   -0.4890    1.1262 C.3      1 ZINC000035999642    0.0600
6      C6      2.1898    0.1218    1.0574 C.ar     1 ZINC000035999642   -0.1200
7      C7      2.4752    1.0761    0.0996 C.ar     1 ZINC000035999642   -0.1300
8      C8      3.7376    1.6365    0.0364 C.ar     1 ZINC000035999642   -0.0900
9      C9      4.7150    1.2422    0.9306 C.ar     1 ZINC000035999642   -0.0800
10     C10     4.4307    0.2876    1.8892 C.ar     1 ZINC000035999642   -0.0900
11     C11     3.1661   -0.2689    1.9569 C.ar     1 ZINC000035999642    0.0000
12     Cl12    2.8083   -1.4677    3.1604 Cl       1 ZINC000035999642   -0.0400
13     C13     0.8929   -1.9838    0.7991 C.3      1 ZINC000035999642   -0.1400
14     C14    -0.4813   -2.6227    1.0061 C.3      1 ZINC000035999642   -0.1300
15     C15    -0.8825   -2.5243    2.4788 C.3      1 ZINC000035999642   -0.1300
16     C16    -1.0284   -1.0497    2.8692 C.3      1 ZINC000035999642   -0.1700
17     C17     0.2573   -0.3314    2.5240 C.2      1 ZINC000035999642    0.3500
18     O18     0.8251    0.3501    3.3434 O.2      1 ZINC000035999642   -0.3700
19     H19     0.6775    2.0527    0.7532 H        1 ZINC000035999642    0.1400
20     H20    -0.8250    2.1076   -0.1994 H        1 ZINC000035999642    0.1400
21     H21    -0.8690    1.5896    1.5029 H        1 ZINC000035999642    0.1200
22     H22     1.7122    1.3841   -0.5998 H        1 ZINC000035999642    0.1300
23     H23     3.9602    2.3824   -0.7124 H        1 ZINC000035999642    0.1500
24     H24     5.7011    1.6798    0.8803 H        1 ZINC000035999642    0.1500
25     H25     5.1945   -0.0204    2.5879 H        1 ZINC000035999642    0.1500
26     H26     1.2014   -2.1131   -0.2384 H        1 ZINC000035999642    0.1100
27     H27     1.6189   -2.4620    1.4567 H        1 ZINC000035999642    0.1200
28     H28    -1.2185   -2.1028    0.3942 H        1 ZINC000035999642    0.0700
29     H29    -0.4416   -3.6712    0.7107 H        1 ZINC000035999642    0.1100
30     H30    -1.8323   -3.0366    2.6319 H        1 ZINC000035999642    0.1000
31     H31    -0.1145   -2.9896    3.0967 H        1 ZINC000035999642    0.0800
32     H32    -1.8560   -0.6049    2.3167 H        1 ZINC000035999642    0.1000
33     H33    -1.2154   -0.9713    3.9402 H        1 ZINC000035999642    0.1200
@<TRIPOS>BOND
1     1     2     1
2     1     19    1
3     1     20    1
4     1     21    1
5     2     3     1
6     2     4     1
7     2     5     1
8     5     17    1
9     5     6     1
10    5     13    1
11    6     11    ar
12    6     7     ar
13    7     8     ar
14    7     22    1
15    8     9     ar
16    8     23    1
17    9     10    ar
18    9     24    1
19    10    11    ar
20    10    25    1
21    11    12    1
22    13    14    1
23    13    26    1
24    13    27    1
25    14    15    1
26    14    28    1
27    14    29    1
28    15    16    1
29    15    30    1
30    15    31    1
31    16    17    1
32    16    32    1
33    16    33    1
34    17    18    2
@<TRIPOS>SUBSTRUCTURE
1   ZINC000035999642 1     RESIDUE    1   A     ZIN   1
