@<TRIPOS>MOLECULE
ZINC000001530814
50    51    1     0     0
SMALL
USER_CHARGES
@<TRIPOS>ATOM
1      C1      1.8104    0.5248   -5.9888 C.3      1 ZINC000001530814   -0.1600
2      C2      1.2474   -0.4311   -4.9351 C.3      1 ZINC000001530814   -0.1200
3      C3      2.1611   -1.6523   -4.8143 C.3      1 ZINC000001530814   -0.1400
4      C4      1.5981   -2.6083   -3.7606 C.3      1 ZINC000001530814   -0.0300
5      N5      2.4755   -3.7808   -3.6446 N.4      1 ZINC000001530814   -0.3600
6      H6      3.4177   -3.4766   -3.4502 H        1 ZINC000001530814    0.4200
7      C7      2.4556   -4.5316   -4.9057 C.3      1 ZINC000001530814   -0.0400
8      C8      3.4297   -5.7084   -4.8184 C.3      1 ZINC000001530814   -0.1400
9      C9      3.0090   -6.6280   -3.6684 C.3      1 ZINC000001530814   -0.1400
10     C10     2.9612   -5.8167   -2.3704 C.3      1 ZINC000001530814   -0.1400
11     C11     2.0034   -4.6367   -2.5495 C.3      1 ZINC000001530814    0.0100
12     H12     1.9662   -4.0564   -1.6276 H        1 ZINC000001530814    0.1600
13     C13     0.6253   -5.1537   -2.8730 C.2      1 ZINC000001530814    0.5200
14     O14     0.0679   -4.7992   -3.8901 O.2      1 ZINC000001530814   -0.5100
15     N15     0.0123   -6.0100   -2.0319 N.am     1 ZINC000001530814   -0.6400
16     C16    -1.2359   -6.5466   -2.3668 C.ar     1 ZINC000001530814    0.1000
17     C17    -2.3506   -5.7217   -2.4407 C.ar     1 ZINC000001530814   -0.0600
18     C18    -2.2177   -4.2470   -2.1607 C.3      1 ZINC000001530814   -0.1100
19     C19    -3.5812   -6.2544   -2.7715 C.ar     1 ZINC000001530814   -0.1200
20     C20    -3.7041   -7.6076   -3.0285 C.ar     1 ZINC000001530814   -0.0900
21     C21    -2.5960   -8.4316   -2.9554 C.ar     1 ZINC000001530814   -0.1200
22     C22    -1.3614   -7.9040   -2.6316 C.ar     1 ZINC000001530814   -0.0700
23     C23    -0.1544   -8.8028   -2.5520 C.3      1 ZINC000001530814   -0.1200
24     H24     2.8087    0.8460   -5.6915 H        1 ZINC000001530814    0.0600
25     H25     1.8642    0.0146   -6.9505 H        1 ZINC000001530814    0.0600
26     H26     1.1594    1.3948   -6.0749 H        1 ZINC000001530814    0.0700
27     H27     1.1936    0.0790   -3.9734 H        1 ZINC000001530814    0.0700
28     H28     0.2491   -0.7523   -5.2324 H        1 ZINC000001530814    0.0700
29     H29     2.2149   -2.1625   -5.7760 H        1 ZINC000001530814    0.0900
30     H30     3.1594   -1.3312   -4.5170 H        1 ZINC000001530814    0.0800
31     H31     1.5444   -2.0981   -2.7989 H        1 ZINC000001530814    0.1200
32     H32     0.5998   -2.9294   -4.0578 H        1 ZINC000001530814    0.1500
33     H33     1.4488   -4.9067   -5.0889 H        1 ZINC000001530814    0.1600
34     H34     2.7522   -3.8750   -5.7236 H        1 ZINC000001530814    0.1300
35     H35     3.4122   -6.2657   -5.7550 H        1 ZINC000001530814    0.1100
36     H36     4.4371   -5.3344   -4.6354 H        1 ZINC000001530814    0.0900
37     H37     2.0225   -7.0427   -3.8755 H        1 ZINC000001530814    0.0800
38     H38     3.7317   -7.4375   -3.5658 H        1 ZINC000001530814    0.1000
39     H39     2.6088   -6.4513   -1.5573 H        1 ZINC000001530814    0.1100
40     H40     3.9588   -5.4449   -2.1367 H        1 ZINC000001530814    0.1100
41     H41     0.4363   -6.2544   -1.1944 H        1 ZINC000001530814    0.4100
42     H42    -2.0966   -3.7082   -3.1005 H        1 ZINC000001530814    0.0800
43     H43    -3.1133   -3.8917   -1.6511 H        1 ZINC000001530814    0.0700
44     H44    -1.3470   -4.0743   -1.5281 H        1 ZINC000001530814    0.0500
45     H45    -4.4486   -5.6135   -2.8291 H        1 ZINC000001530814    0.1300
46     H46    -4.6675   -8.0217   -3.2866 H        1 ZINC000001530814    0.1300
47     H47    -2.6954   -9.4882   -3.1560 H        1 ZINC000001530814    0.1300
48     H48     0.3266   -8.8527   -3.5289 H        1 ZINC000001530814    0.0700
49     H49     0.5485   -8.4033   -1.8210 H        1 ZINC000001530814    0.0600
50     H50    -0.4652   -9.8025   -2.2486 H        1 ZINC000001530814    0.0800
@<TRIPOS>BOND
1     1     2     1
2     1     24    1
3     1     25    1
4     1     26    1
5     2     3     1
6     2     27    1
7     2     28    1
8     3     4     1
9     3     29    1
10    3     30    1
11    4     5     1
12    4     31    1
13    4     32    1
14    5     6     1
15    5     11    1
16    5     7     1
17    7     8     1
18    7     33    1
19    7     34    1
20    8     9     1
21    8     35    1
22    8     36    1
23    9     10    1
24    9     37    1
25    9     38    1
26    10    11    1
27    10    39    1
28    10    40    1
29    11    12    1
30    11    13    1
31    13    14    2
32    13    15    am
33    15    16    1
34    15    41    1
35    16    22    ar
36    16    17    ar
37    17    18    1
38    17    19    ar
39    18    42    1
40    18    43    1
41    18    44    1
42    19    20    ar
43    19    45    1
44    20    21    ar
45    20    46    1
46    21    22    ar
47    21    47    1
48    22    23    1
49    23    48    1
50    23    49    1
51    23    50    1
@<TRIPOS>SUBSTRUCTURE
1   ZINC000001530814 1     RESIDUE    1   A     ZIN   1

@<TRIPOS>MOLECULE
ZINC000001530814
50    51    1     0     0
SMALL
USER_CHARGES
@<TRIPOS>ATOM
1      C1      2.3288   -2.3826    3.6758 C.3      1 ZINC000001530814   -0.1600
2      C2      2.0570   -3.4519    2.6158 C.3      1 ZINC000001530814   -0.1200
3      C3      2.2064   -2.8381    1.2223 C.3      1 ZINC000001530814   -0.1400
4      C4      1.9346   -3.9074    0.1623 C.3      1 ZINC000001530814   -0.0200
5      N5      2.0779   -3.3181   -1.1757 N.4      1 ZINC000001530814   -0.3700
6      H6      1.4910   -2.5005   -1.2467 H        1 ZINC000001530814    0.4300
7      C7      3.4780   -2.9338   -1.3920 C.3      1 ZINC000001530814   -0.0100
8      C8      3.6178   -2.2459   -2.7517 C.3      1 ZINC000001530814   -0.1500
9      C9      3.1759   -3.2123   -3.8544 C.3      1 ZINC000001530814   -0.1300
10     C10     1.7391   -3.6644   -3.5777 C.3      1 ZINC000001530814   -0.1400
11     C11     1.6706   -4.3004   -2.1875 C.3      1 ZINC000001530814    0.0100
12     H12     2.3378   -5.1614   -2.1491 H        1 ZINC000001530814    0.1600
13     C13     0.2585   -4.7470   -1.9092 C.2      1 ZINC000001530814    0.5000
14     O14    -0.5124   -4.0023   -1.3415 O.2      1 ZINC000001530814   -0.5000
15     N15    -0.1479   -5.9740   -2.2912 N.am     1 ZINC000001530814   -0.6400
16     C16    -1.4786   -6.3616   -2.0990 C.ar     1 ZINC000001530814    0.1100
17     C17    -1.7703   -7.5246   -1.3984 C.ar     1 ZINC000001530814   -0.0800
18     C18    -0.6538   -8.3711   -0.8434 C.3      1 ZINC000001530814   -0.1100
19     C19    -3.0848   -7.9045   -1.2105 C.ar     1 ZINC000001530814   -0.1100
20     C20    -4.1099   -7.1284   -1.7194 C.ar     1 ZINC000001530814   -0.1000
21     C21    -3.8227   -5.9700   -2.4179 C.ar     1 ZINC000001530814   -0.1100
22     C22    -2.5105   -5.5811   -2.6035 C.ar     1 ZINC000001530814   -0.0600
23     C23    -2.1984   -4.3185   -3.3648 C.3      1 ZINC000001530814   -0.1100
24     H24     3.3420   -1.9996    3.5542 H        1 ZINC000001530814    0.0600
25     H25     1.6156   -1.5665    3.5599 H        1 ZINC000001530814    0.0600
26     H26     2.2224   -2.8198    4.6686 H        1 ZINC000001530814    0.0700
27     H27     2.7702   -4.2679    2.7317 H        1 ZINC000001530814    0.0700
28     H28     1.0438   -3.8348    2.7375 H        1 ZINC000001530814    0.0700
29     H29     1.4931   -2.0220    1.1064 H        1 ZINC000001530814    0.0900
30     H30     3.2196   -2.4552    1.1006 H        1 ZINC000001530814    0.0900
31     H31     2.6478   -4.7235    0.2782 H        1 ZINC000001530814    0.1300
32     H32     0.9213   -4.2903    0.2839 H        1 ZINC000001530814    0.1300
33     H33     3.7919   -2.2486   -0.6046 H        1 ZINC000001530814    0.1400
34     H34     4.1063   -3.8242   -1.3694 H        1 ZINC000001530814    0.1300
35     H35     2.9900   -1.3552   -2.7752 H        1 ZINC000001530814    0.0900
36     H36     4.6583   -1.9630   -2.9111 H        1 ZINC000001530814    0.1200
37     H37     3.2199   -2.7083   -4.8199 H        1 ZINC000001530814    0.1000
38     H38     3.8355   -4.0800   -3.8644 H        1 ZINC000001530814    0.0900
39     H39     1.0723   -2.8031   -3.6184 H        1 ZINC000001530814    0.1000
40     H40     1.4368   -4.3954   -4.3276 H        1 ZINC000001530814    0.1200
41     H41     0.4821   -6.5883   -2.6993 H        1 ZINC000001530814    0.4100
42     H42    -0.4711   -8.0959    0.1953 H        1 ZINC000001530814    0.0700
43     H43    -0.9344   -9.4230   -0.8967 H        1 ZINC000001530814    0.0800
44     H44     0.2517   -8.2065   -1.4275 H        1 ZINC000001530814    0.0600
45     H45    -3.3123   -8.8089   -0.6658 H        1 ZINC000001530814    0.1300
46     H46    -5.1369   -7.4278   -1.5714 H        1 ZINC000001530814    0.1300
47     H47    -4.6255   -5.3663   -2.8147 H        1 ZINC000001530814    0.1300
48     H48    -2.2781   -3.4617   -2.6957 H        1 ZINC000001530814    0.0800
49     H49    -1.1854   -4.3755   -3.7632 H        1 ZINC000001530814    0.0500
50     H50    -2.9060   -4.2052   -4.1861 H        1 ZINC000001530814    0.0700
@<TRIPOS>BOND
1     1     2     1
2     1     24    1
3     1     25    1
4     1     26    1
5     2     3     1
6     2     27    1
7     2     28    1
8     3     4     1
9     3     29    1
10    3     30    1
11    4     5     1
12    4     31    1
13    4     32    1
14    5     6     1
15    5     11    1
16    5     7     1
17    7     8     1
18    7     33    1
19    7     34    1
20    8     9     1
21    8     35    1
22    8     36    1
23    9     10    1
24    9     37    1
25    9     38    1
26    10    11    1
27    10    39    1
28    10    40    1
29    11    12    1
30    11    13    1
31    13    14    2
32    13    15    am
33    15    16    1
34    15    41    1
35    16    22    ar
36    16    17    ar
37    17    18    1
38    17    19    ar
39    18    42    1
40    18    43    1
41    18    44    1
42    19    20    ar
43    19    45    1
44    20    21    ar
45    20    46    1
46    21    22    ar
47    21    47    1
48    22    23    1
49    23    48    1
50    23    49    1
51    23    50    1
@<TRIPOS>SUBSTRUCTURE
1   ZINC000001530814 1     RESIDUE    1   A     ZIN   1

@<TRIPOS>MOLECULE
ZINC000001530814
49    50    1     0     0
SMALL
USER_CHARGES
@<TRIPOS>ATOM
1      C1      1.9441   -2.8752    3.7767 C.3      1 ZINC000001530814   -0.1500
2      C2      1.8065   -3.8807    2.6317 C.3      1 ZINC000001530814   -0.1200
3      C3      2.0022   -3.1618    1.2954 C.3      1 ZINC000001530814   -0.1100
4      C4      1.8646   -4.1672    0.1504 C.3      1 ZINC000001530814    0.0500
5      N5      2.0526   -3.4769   -1.1326 N.3      1 ZINC000001530814   -0.5100
6      C6      3.4582   -3.0984   -1.3256 C.3      1 ZINC000001530814    0.0600
7      C7      3.5915   -2.2576   -2.5973 C.3      1 ZINC000001530814   -0.1200
8      C8      3.0932   -3.0705   -3.7954 C.3      1 ZINC000001530814   -0.1200
9      C9      1.6426   -3.4933   -3.5476 C.3      1 ZINC000001530814   -0.1100
10     C10     1.5658   -4.2983   -2.2483 C.3      1 ZINC000001530814    0.0700
11     H11     2.1834   -5.1920   -2.3378 H        1 ZINC000001530814    0.0600
12     C12     0.1364   -4.6996   -1.9899 C.2      1 ZINC000001530814    0.5200
13     O13    -0.5955   -3.9649   -1.3609 O.2      1 ZINC000001530814   -0.4900
14     N14    -0.3287   -5.8748   -2.4579 N.am     1 ZINC000001530814   -0.6800
15     C15    -1.6745   -6.2148   -2.2813 C.ar     1 ZINC000001530814    0.1300
16     C16    -2.0147   -7.4124   -1.6661 C.ar     1 ZINC000001530814   -0.0900
17     C17    -0.9346   -8.3478   -1.1871 C.3      1 ZINC000001530814   -0.1100
18     C18    -3.3440   -7.7451   -1.4933 C.ar     1 ZINC000001530814   -0.1200
19     C19    -4.3357   -6.8874   -1.9326 C.ar     1 ZINC000001530814   -0.1100
20     C20    -4.0002   -5.6943   -2.5460 C.ar     1 ZINC000001530814   -0.1200
21     C21    -2.6728   -5.3527   -2.7158 C.ar     1 ZINC000001530814   -0.0700
22     C22    -2.3081   -4.0523   -3.3844 C.3      1 ZINC000001530814   -0.1100
23     H23     2.9365   -2.4255    3.7481 H        1 ZINC000001530814    0.0500
24     H24     1.1890   -2.0965    3.6691 H        1 ZINC000001530814    0.0600
25     H25     1.8046   -3.3874    4.7288 H        1 ZINC000001530814    0.0500
26     H26     2.5615   -4.6594    2.7394 H        1 ZINC000001530814    0.0600
27     H27     0.8140   -4.3304    2.6604 H        1 ZINC000001530814    0.0600
28     H28     1.2472   -2.3830    1.1878 H        1 ZINC000001530814    0.0700
29     H29     2.9947   -2.7120    1.2668 H        1 ZINC000001530814    0.0600
30     H30     2.6197   -4.9460    0.2580 H        1 ZINC000001530814    0.0300
31     H31     0.8722   -4.6169    0.1791 H        1 ZINC000001530814    0.0800
32     H32     3.7988   -2.5173   -0.4686 H        1 ZINC000001530814    0.0800
33     H33     4.0669   -3.9977   -1.4194 H        1 ZINC000001530814    0.0300
34     H34     2.9939   -1.3513   -2.4987 H        1 ZINC000001530814    0.0700
35     H35     4.6372   -1.9899   -2.7487 H        1 ZINC000001530814    0.0700
36     H36     3.1458   -2.4602   -4.6970 H        1 ZINC000001530814    0.0700
37     H37     3.7152   -3.9572   -3.9179 H        1 ZINC000001530814    0.0600
38     H38     1.0143   -2.6065   -3.4639 H        1 ZINC000001530814    0.0800
39     H39     1.2959   -4.1085   -4.3779 H        1 ZINC000001530814    0.0700
40     H40     0.2694   -6.4849   -2.9171 H        1 ZINC000001530814    0.4100
41     H41    -0.7227   -8.1504   -0.1363 H        1 ZINC000001530814    0.0700
42     H42    -1.2691   -9.3787   -1.3028 H        1 ZINC000001530814    0.0700
43     H43    -0.0307   -8.1909   -1.7757 H        1 ZINC000001530814    0.0600
44     H44    -3.6092   -8.6764   -1.0150 H        1 ZINC000001530814    0.1300
45     H45    -5.3744   -7.1500   -1.7967 H        1 ZINC000001530814    0.1200
46     H46    -4.7771   -5.0268   -2.8886 H        1 ZINC000001530814    0.1300
47     H47    -2.3430   -3.2452   -2.6526 H        1 ZINC000001530814    0.0800
48     H48    -1.3019   -4.1255   -3.7969 H        1 ZINC000001530814    0.0600
49     H49    -3.0158   -3.8456   -4.1872 H        1 ZINC000001530814    0.0600
@<TRIPOS>BOND
1     1     2     1
2     1     23    1
3     1     24    1
4     1     25    1
5     2     3     1
6     2     26    1
7     2     27    1
8     3     4     1
9     3     28    1
10    3     29    1
11    4     5     1
12    4     30    1
13    4     31    1
14    5     10    1
15    5     6     1
16    6     7     1
17    6     32    1
18    6     33    1
19    7     8     1
20    7     34    1
21    7     35    1
22    8     9     1
23    8     36    1
24    8     37    1
25    9     10    1
26    9     38    1
27    9     39    1
28    10    11    1
29    10    12    1
30    12    13    2
31    12    14    am
32    14    15    1
33    14    40    1
34    15    21    ar
35    15    16    ar
36    16    17    1
37    16    18    ar
38    17    41    1
39    17    42    1
40    17    43    1
41    18    19    ar
42    18    44    1
43    19    20    ar
44    19    45    1
45    20    21    ar
46    20    46    1
47    21    22    1
48    22    47    1
49    22    48    1
50    22    49    1
@<TRIPOS>SUBSTRUCTURE
1   ZINC000001530814 1     RESIDUE    1   A     ZIN   1
