@<TRIPOS>MOLECULE
ZINC000001066512
49    52    1     0     0
SMALL
USER_CHARGES
@<TRIPOS>ATOM
1      C1      1.1128    1.7610   -0.7419 C.3      1 ZINC000001066512   -0.1500
2      C2      0.9630    0.2477   -0.5738 C.3      1 ZINC000001066512    0.0500
3      O3      1.3996   -0.4094   -1.7653 O.3      1 ZINC000001066512   -0.3200
4      C4      1.3315   -1.7666   -1.7818 C.ar     1 ZINC000001066512    0.1400
5      C5      0.8489   -2.4516   -0.6760 C.ar     1 ZINC000001066512   -0.2100
6      C6      0.7803   -3.8312   -0.6953 C.ar     1 ZINC000001066512   -0.0500
7      C7      1.1924   -4.5294   -1.8153 C.ar     1 ZINC000001066512   -0.1300
8      C8      1.1169   -6.0344   -1.8335 C.3      1 ZINC000001066512    0.2500
9      H9      0.9485   -6.4020   -0.8213 H        1 ZINC000001066512    0.1000
10     N10     2.3752   -6.5803   -2.3483 N.pl3    1 ZINC000001066512   -0.7300
11     C11     2.7479   -7.8900   -2.0363 C.ar     1 ZINC000001066512    0.1700
12     C12     3.8997   -8.4471   -2.5863 C.ar     1 ZINC000001066512   -0.1500
13     C13     4.2276   -9.7496   -2.2467 C.ar     1 ZINC000001066512   -0.1200
14     C14     3.4080  -10.4483   -1.3802 C.ar     1 ZINC000001066512    0.0400
15     N15     2.3236   -9.8921   -0.8761 N.ar     1 ZINC000001066512   -0.4500
16     C16     1.9781   -8.6543   -1.1682 C.ar     1 ZINC000001066512    0.0300
17     C17    -0.0201   -6.4696   -2.7217 C.ar     1 ZINC000001066512   -0.1100
18     C18     0.2322   -6.7813   -4.0546 C.ar     1 ZINC000001066512   -0.0700
19     C19    -0.7743   -7.1780   -4.8838 C.ar     1 ZINC000001066512   -0.0300
20     Cl20   -0.4370   -7.5619   -6.5429 Cl       1 ZINC000001066512   -0.0500
21     C21    -2.0860   -7.2754   -4.3895 C.ar     1 ZINC000001066512   -0.0800
22     C22    -3.1515   -7.6819   -5.2144 C.ar     1 ZINC000001066512   -0.0600
23     C23    -4.4001   -7.7540   -4.6655 C.ar     1 ZINC000001066512   -0.1600
24     C24    -4.5895   -7.4293   -3.3239 C.ar     1 ZINC000001066512    0.1300
25     N25    -3.5945   -7.0511   -2.5589 N.ar     1 ZINC000001066512   -0.4600
26     C26    -2.3489   -6.9598   -3.0337 C.ar     1 ZINC000001066512    0.1200
27     C27    -1.2814   -6.5575   -2.2048 C.ar     1 ZINC000001066512    0.1600
28     O28    -1.5071   -6.2544   -0.8996 O.3      1 ZINC000001066512   -0.4700
29     C29     1.6733   -3.8491   -2.9188 C.ar     1 ZINC000001066512   -0.0700
30     C30     1.7390   -2.4692   -2.9064 C.ar     1 ZINC000001066512   -0.1500
31     H31     2.1589    2.0041   -0.9284 H        1 ZINC000001066512    0.0700
32     H32     0.5065    2.0949   -1.5839 H        1 ZINC000001066512    0.0700
33     H33     0.7798    2.2622    0.1669 H        1 ZINC000001066512    0.0800
34     H34     1.5693   -0.0862    0.2682 H        1 ZINC000001066512    0.0600
35     H35    -0.0831    0.0046   -0.3873 H        1 ZINC000001066512    0.0600
36     H36     0.5275   -1.9067    0.1993 H        1 ZINC000001066512    0.1300
37     H37     0.4047   -4.3648    0.1652 H        1 ZINC000001066512    0.1300
38     H38     2.9495   -6.0323   -2.9058 H        1 ZINC000001066512    0.4000
39     H39     4.5218   -7.8779   -3.2612 H        1 ZINC000001066512    0.1300
40     H40     5.1134  -10.2139   -2.6545 H        1 ZINC000001066512    0.1300
41     H41     3.6589  -11.4640   -1.1125 H        1 ZINC000001066512    0.1500
42     H42     1.0828   -8.2328   -0.7354 H        1 ZINC000001066512    0.1400
43     H43     1.2394   -6.7074   -4.4372 H        1 ZINC000001066512    0.1400
44     H44    -2.9864   -7.9296   -6.2526 H        1 ZINC000001066512    0.1500
45     H45    -5.2397   -8.0621   -5.2709 H        1 ZINC000001066512    0.1400
46     H46    -5.5823   -7.4904   -2.9033 H        1 ZINC000001066512    0.1700
47     H47    -1.4264   -7.0095   -0.3009 H        1 ZINC000001066512    0.3900
48     H48     1.9943   -4.3967   -3.7926 H        1 ZINC000001066512    0.1300
49     H49     2.1147   -1.9383   -3.7686 H        1 ZINC000001066512    0.1300
@<TRIPOS>BOND
1     1     2     1
2     1     31    1
3     1     32    1
4     1     33    1
5     2     3     1
6     2     34    1
7     2     35    1
8     3     4     1
9     4     30    ar
10    4     5     ar
11    5     6     ar
12    5     36    1
13    6     7     ar
14    6     37    1
15    7     8     1
16    7     29    ar
17    8     9     1
18    8     10    1
19    8     17    1
20    10    11    1
21    10    38    1
22    11    16    ar
23    11    12    ar
24    12    13    ar
25    12    39    1
26    13    14    ar
27    13    40    1
28    14    15    ar
29    14    41    1
30    15    16    ar
31    16    42    1
32    17    27    ar
33    17    18    ar
34    18    19    ar
35    18    43    1
36    19    20    1
37    19    21    ar
38    21    26    ar
39    21    22    ar
40    22    23    ar
41    22    44    1
42    23    24    ar
43    23    45    1
44    24    25    ar
45    24    46    1
46    25    26    ar
47    26    27    ar
48    27    28    1
49    28    47    1
50    29    30    ar
51    29    48    1
52    30    49    1
@<TRIPOS>SUBSTRUCTURE
1   ZINC000001066512 1     RESIDUE    1   A     ZIN   1

@<TRIPOS>MOLECULE
ZINC000001066512
48    51    1     0     0
SMALL
USER_CHARGES
@<TRIPOS>ATOM
1      C1      1.1144    1.7616   -0.7443 C.3      1 ZINC000001066512   -0.1500
2      C2      0.9645    0.2483   -0.5757 C.3      1 ZINC000001066512    0.0500
3      O3      1.4005   -0.4093   -1.7671 O.3      1 ZINC000001066512   -0.3200
4      C4      1.3322   -1.7665   -1.7830 C.ar     1 ZINC000001066512    0.1200
5      C5      0.8500   -2.4510   -0.6768 C.ar     1 ZINC000001066512   -0.2100
6      C6      0.7812   -3.8305   -0.6956 C.ar     1 ZINC000001066512   -0.0500
7      C7      1.1928   -4.5292   -1.8155 C.ar     1 ZINC000001066512   -0.1000
8      C8      1.1171   -6.0342   -1.8332 C.3      1 ZINC000001066512    0.2700
9      H9      0.9491   -6.4014   -0.8207 H        1 ZINC000001066512    0.0900
10     N10     2.3751   -6.5804   -2.3482 N.pl3    1 ZINC000001066512   -0.7300
11     C11     2.7477   -7.8902   -2.0360 C.ar     1 ZINC000001066512    0.1900
12     C12     3.8995   -8.4475   -2.5859 C.ar     1 ZINC000001066512   -0.1700
13     C13     4.2273   -9.7499   -2.2462 C.ar     1 ZINC000001066512   -0.1300
14     C14     3.4075  -10.4484   -1.3797 C.ar     1 ZINC000001066512    0.0200
15     N15     2.3232   -9.8921   -0.8757 N.ar     1 ZINC000001066512   -0.4500
16     C16     1.9778   -8.6543   -1.1678 C.ar     1 ZINC000001066512    0.0400
17     C17    -0.0203   -6.4696   -2.7207 C.ar     1 ZINC000001066512   -0.3000
18     C18     0.2314   -6.7816   -4.0536 C.ar     1 ZINC000001066512    0.0100
19     C19    -0.7754   -7.1786   -4.8823 C.ar     1 ZINC000001066512   -0.1800
20     Cl20   -0.4388   -7.5629   -6.5415 Cl       1 ZINC000001066512   -0.1200
21     C21    -2.0869   -7.2757   -4.3874 C.ar     1 ZINC000001066512   -0.0200
22     C22    -3.1528   -7.6824   -5.2118 C.ar     1 ZINC000001066512   -0.1100
23     C23    -4.4011   -7.7544   -4.6623 C.ar     1 ZINC000001066512   -0.1600
24     C24    -4.5900   -7.4293   -3.3207 C.ar     1 ZINC000001066512    0.0500
25     N25    -3.5946   -7.0510   -2.5562 N.ar     1 ZINC000001066512   -0.4100
26     C26    -2.3492   -6.9598   -3.0316 C.ar     1 ZINC000001066512    0.0500
27     C27    -1.2813   -6.5573   -2.2032 C.ar     1 ZINC000001066512    0.3300
28     O28    -1.5065   -6.2540   -0.8981 O.3      1 ZINC000001066512   -0.6500
29     C29     1.6733   -3.8494   -2.9195 C.ar     1 ZINC000001066512   -0.0700
30     C30     1.7392   -2.4695   -2.9076 C.ar     1 ZINC000001066512   -0.1500
31     H31     2.1604    2.0044   -0.9314 H        1 ZINC000001066512    0.0600
32     H32     0.5078    2.0952   -1.5862 H        1 ZINC000001066512    0.0600
33     H33     0.7818    2.2631    0.1645 H        1 ZINC000001066512    0.0800
34     H34     1.5711   -0.0853    0.2662 H        1 ZINC000001066512    0.0600
35     H35    -0.0815    0.0054   -0.3886 H        1 ZINC000001066512    0.0600
36     H36     0.5291   -1.9057    0.1985 H        1 ZINC000001066512    0.1200
37     H37     0.4059   -4.3638    0.1653 H        1 ZINC000001066512    0.1300
38     H38     2.9494   -6.0327   -2.9060 H        1 ZINC000001066512    0.3900
39     H39     4.5217   -7.8784   -3.2609 H        1 ZINC000001066512    0.1300
40     H40     5.1130  -10.2143   -2.6539 H        1 ZINC000001066512    0.1300
41     H41     3.6584  -11.4642   -1.1119 H        1 ZINC000001066512    0.1400
42     H42     1.0825   -8.2327   -0.7352 H        1 ZINC000001066512    0.1600
43     H43     1.2385   -6.7079   -4.4367 H        1 ZINC000001066512    0.1000
44     H44    -2.9881   -7.9304   -6.2500 H        1 ZINC000001066512    0.1300
45     H45    -5.2411   -8.0626   -5.2673 H        1 ZINC000001066512    0.1200
46     H46    -5.5826   -7.4903   -2.8997 H        1 ZINC000001066512    0.1400
47     H47     1.9939   -4.3974   -3.7932 H        1 ZINC000001066512    0.1200
48     H48     2.1146   -1.9390   -3.7701 H        1 ZINC000001066512    0.1200
@<TRIPOS>BOND
1     1     2     1
2     1     31    1
3     1     32    1
4     1     33    1
5     2     3     1
6     2     34    1
7     2     35    1
8     3     4     1
9     4     30    ar
10    4     5     ar
11    5     6     ar
12    5     36    1
13    6     7     ar
14    6     37    1
15    7     8     1
16    7     29    ar
17    8     9     1
18    8     10    1
19    8     17    1
20    10    11    1
21    10    38    1
22    11    16    ar
23    11    12    ar
24    12    13    ar
25    12    39    1
26    13    14    ar
27    13    40    1
28    14    15    ar
29    14    41    1
30    15    16    ar
31    16    42    1
32    17    27    ar
33    17    18    ar
34    18    19    ar
35    18    43    1
36    19    20    1
37    19    21    ar
38    21    26    ar
39    21    22    ar
40    22    23    ar
41    22    44    1
42    23    24    ar
43    23    45    1
44    24    25    ar
45    24    46    1
46    25    26    ar
47    26    27    ar
48    27    28    1
49    29    30    ar
50    29    47    1
51    30    48    1
@<TRIPOS>SUBSTRUCTURE
1   ZINC000001066512 1     RESIDUE    1   A     ZIN   1
