@<TRIPOS>MOLECULE
ZINC000000896409
26    25    1     0     0
SMALL
USER_CHARGES
@<TRIPOS>ATOM
1      O1     -0.0382    1.2049    0.1901 O.3      1 ZINC000000896409   -0.5800
2      C2     -0.1071   -0.2175    0.0711 C.3      1 ZINC000000896409    0.0500
3      C3     -1.5725   -0.6550    0.0247 C.3      1 ZINC000000896409   -0.0100
4      N4     -2.2101   -0.1042   -1.1786 N.4      1 ZINC000000896409   -0.3800
5      H5     -2.0751    0.8954   -1.2032 H        1 ZINC000000896409    0.4500
6      C6     -1.6063   -0.7094   -2.3733 C.3      1 ZINC000000896409   -0.0100
7      C7     -2.1636   -0.0303   -3.6260 C.3      1 ZINC000000896409    0.0500
8      O8     -1.7812    1.3465   -3.6316 O.3      1 ZINC000000896409   -0.5800
9      C9     -3.6480   -0.4037   -1.1516 C.3      1 ZINC000000896409   -0.0100
10     C10    -4.2995    0.3289    0.0231 C.3      1 ZINC000000896409    0.0500
11     O11    -4.2110    1.7396   -0.1872 O.3      1 ZINC000000896409   -0.5800
12     H12     0.8631    1.5534    0.2253 H        1 ZINC000000896409    0.4100
13     H13     0.3946   -0.5302   -0.8447 H        1 ZINC000000896409    0.0700
14     H14     0.3826   -0.6781    0.9291 H        1 ZINC000000896409    0.0900
15     H15    -1.6260   -1.7434   -0.0015 H        1 ZINC000000896409    0.1400
16     H16    -2.0897   -0.2871    0.9108 H        1 ZINC000000896409    0.1400
17     H17    -0.5248   -0.5785   -2.3398 H        1 ZINC000000896409    0.1400
18     H18    -1.8429   -1.7730   -2.4009 H        1 ZINC000000896409    0.1400
19     H19    -1.7650   -0.5218   -4.5135 H        1 ZINC000000896409    0.0900
20     H20    -3.2511   -0.1054   -3.6267 H        1 ZINC000000896409    0.0700
21     H21    -2.1634    1.8580   -4.3578 H        1 ZINC000000896409    0.4100
22     H22    -4.1055   -0.0738   -2.0843 H        1 ZINC000000896409    0.1400
23     H23    -3.7933   -1.4777   -1.0356 H        1 ZINC000000896409    0.1400
24     H24    -5.3472    0.0376    0.0969 H        1 ZINC000000896409    0.0900
25     H25    -3.7833    0.0661    0.9465 H        1 ZINC000000896409    0.0700
26     H26    -4.6050    2.2682    0.5202 H        1 ZINC000000896409    0.4100
@<TRIPOS>BOND
1     1     2     1
2     1     12    1
3     2     3     1
4     2     13    1
5     2     14    1
6     3     4     1
7     3     15    1
8     3     16    1
9     4     5     1
10    4     6     1
11    4     9     1
12    6     7     1
13    6     17    1
14    6     18    1
15    7     8     1
16    7     19    1
17    7     20    1
18    8     21    1
19    9     10    1
20    9     22    1
21    9     23    1
22    10    11    1
23    10    24    1
24    10    25    1
25    11    26    1
@<TRIPOS>SUBSTRUCTURE
1   ZINC000000896409 1     RESIDUE    1   A     ZIN   1

@<TRIPOS>MOLECULE
ZINC000000896409
25    24    1     0     0
SMALL
USER_CHARGES
@<TRIPOS>ATOM
1      O1     -3.3568   -1.2263    0.9957 O.3      1 ZINC000000896409   -0.5400
2      C2     -2.2513   -0.3237    1.0684 C.3      1 ZINC000000896409    0.0400
3      C3     -1.2601   -0.6401   -0.0533 C.3      1 ZINC000000896409    0.0400
4      N4     -1.8066   -0.1752   -1.3352 N.3      1 ZINC000000896409   -0.5200
5      C5     -3.0955   -0.8188   -1.6224 C.3      1 ZINC000000896409    0.0400
6      C6     -2.8638   -2.2891   -1.9762 C.3      1 ZINC000000896409    0.0900
7      O7     -2.4109   -2.9923   -0.8176 O.3      1 ZINC000000896409   -0.5500
8      C8     -1.9331    1.2882   -1.3539 C.3      1 ZINC000000896409    0.0400
9      C9     -0.5437    1.9188   -1.4673 C.3      1 ZINC000000896409    0.0800
10     O10     0.0403    1.5622   -2.7218 O.3      1 ZINC000000896409   -0.5600
11     H11    -3.9881   -1.1343    1.7224 H        1 ZINC000000896409    0.3600
12     H12    -2.6100    0.6997    0.9584 H        1 ZINC000000896409    0.0400
13     H13    -1.7556   -0.4334    2.0329 H        1 ZINC000000896409    0.0400
14     H14    -0.3150   -0.1341    0.1436 H        1 ZINC000000896409    0.0800
15     H15    -1.0936   -1.7163   -0.0982 H        1 ZINC000000896409    0.1100
16     H16    -3.7379   -0.7533   -0.7442 H        1 ZINC000000896409    0.0800
17     H17    -3.5746   -0.3143   -2.4615 H        1 ZINC000000896409    0.0700
18     H18    -3.7970   -2.7298   -2.3270 H        1 ZINC000000896409    0.0400
19     H19    -2.1110   -2.3596   -2.7614 H        1 ZINC000000896409    0.0500
20     H20    -2.2433   -3.9326   -0.9686 H        1 ZINC000000896409    0.3700
21     H21    -2.5397    1.5896   -2.2079 H        1 ZINC000000896409    0.0800
22     H22    -2.4102    1.6234   -0.4330 H        1 ZINC000000896409    0.0500
23     H23    -0.6306    3.0034   -1.4022 H        1 ZINC000000896409    0.0500
24     H24     0.0875    1.5555   -0.6563 H        1 ZINC000000896409    0.0400
25     H25     0.9243    1.9282   -2.8624 H        1 ZINC000000896409    0.3700
@<TRIPOS>BOND
1     1     2     1
2     1     11    1
3     2     3     1
4     2     12    1
5     2     13    1
6     3     4     1
7     3     14    1
8     3     15    1
9     4     5     1
10    4     8     1
11    5     6     1
12    5     16    1
13    5     17    1
14    6     7     1
15    6     18    1
16    6     19    1
17    7     20    1
18    8     9     1
19    8     21    1
20    8     22    1
21    9     10    1
22    9     23    1
23    9     24    1
24    10    25    1
@<TRIPOS>SUBSTRUCTURE
1   ZINC000000896409 1     RESIDUE    1   A     ZIN   1
