@<TRIPOS>MOLECULE
ZINC000000491073
43    46    1     0     0
SMALL
USER_CHARGES
@<TRIPOS>ATOM
1      C1     -0.0173    1.4248    0.0099 C.3      1 ZINC000000491073    0.0200
2      O2      0.0021   -0.0041    0.0020 O.3      1 ZINC000000491073   -0.3000
3      C3     -1.2011   -0.6379    0.0101 C.ar     1 ZINC000000491073    0.1400
4      C4     -2.3960    0.0703    0.0195 C.ar     1 ZINC000000491073   -0.1600
5      C5     -3.6140   -0.5683    0.0038 C.ar     1 ZINC000000491073   -0.0900
6      C6     -3.7159   -1.9660   -0.0462 C.ar     1 ZINC000000491073   -0.1300
7      C7     -5.1000   -2.5144   -0.2318 C.3      1 ZINC000000491073    0.0500
8      N8     -5.1446   -3.6245   -1.1612 N.4      1 ZINC000000491073   -0.3700
9      H9     -4.6683   -3.3518   -2.0079 H        1 ZINC000000491073    0.4200
10     C10    -6.5498   -3.9009   -1.4886 C.3      1 ZINC000000491073   -0.0500
11     C11    -4.5480   -4.8354   -0.6739 C.3      1 ZINC000000491073   -0.0200
12     C12    -3.0679   -4.9417   -0.8980 C.3      1 ZINC000000491073   -0.1200
13     C13    -2.2686   -4.1501    0.1186 C.3      1 ZINC000000491073   -0.0100
14     C14    -2.5716   -4.5858    1.5132 C.2      1 ZINC000000491073   -0.1400
15     C15    -1.7182   -5.0908    2.3395 C.2      1 ZINC000000491073   -0.1500
16     C16    -0.2751   -5.3063    2.0128 C.3      1 ZINC000000491073    0.1300
17     H17     0.0431   -6.2638    2.4251 H        1 ZINC000000491073    0.0800
18     O18     0.4979   -4.2630    2.6094 O.3      1 ZINC000000491073   -0.5500
19     C19    -0.0297   -5.3068    0.5179 C.3      1 ZINC000000491073   -0.1200
20     C20    -0.7785   -4.2326   -0.2220 C.3      1 ZINC000000491073    0.1000
21     H21    -0.6845   -4.4148   -1.2926 H        1 ZINC000000491073    0.0900
22     O22    -0.2758   -2.9224    0.0640 O.3      1 ZINC000000491073   -0.2600
23     C23    -1.2937   -2.0359    0.0035 C.ar     1 ZINC000000491073    0.1000
24     C24    -2.5458   -2.6640   -0.0108 C.ar     1 ZINC000000491073   -0.1200
25     H25     1.0053    1.8021    0.0021 H        1 ZINC000000491073    0.1100
26     H26    -0.5445    1.7859   -0.8732 H        1 ZINC000000491073    0.0600
27     H27    -0.5275    1.7763    0.9067 H        1 ZINC000000491073    0.0600
28     H28    -2.3679    1.1497    0.0400 H        1 ZINC000000491073    0.1500
29     H29    -4.5172    0.0232    0.0311 H        1 ZINC000000491073    0.1400
30     H30    -5.4778   -2.8493    0.7342 H        1 ZINC000000491073    0.1300
31     H31    -5.7463   -1.7190   -0.6029 H        1 ZINC000000491073    0.1400
32     H32    -6.9977   -3.0170   -1.9426 H        1 ZINC000000491073    0.1300
33     H33    -6.6026   -4.7350   -2.1883 H        1 ZINC000000491073    0.1300
34     H34    -7.0917   -4.1558   -0.5778 H        1 ZINC000000491073    0.1200
35     H35    -4.7404   -4.9077    0.3965 H        1 ZINC000000491073    0.1300
36     H36    -5.0322   -5.6797   -1.1646 H        1 ZINC000000491073    0.1400
37     H37    -2.7763   -5.9902   -0.8368 H        1 ZINC000000491073    0.1200
38     H38    -2.8348   -4.5707   -1.8961 H        1 ZINC000000491073    0.0900
39     H39    -3.5878   -4.4686    1.8597 H        1 ZINC000000491073    0.1100
40     H40    -2.0660   -5.3733    3.3222 H        1 ZINC000000491073    0.1200
41     H41     0.4225   -4.2192    3.5725 H        1 ZINC000000491073    0.3800
42     H42     1.0373   -5.1720    0.3406 H        1 ZINC000000491073    0.1000
43     H43    -0.3260   -6.2762    0.1172 H        1 ZINC000000491073    0.1000
@<TRIPOS>BOND
1     1     2     1
2     1     25    1
3     1     26    1
4     1     27    1
5     2     3     1
6     3     23    ar
7     3     4     ar
8     4     5     ar
9     4     28    1
10    5     6     ar
11    5     29    1
12    6     24    ar
13    6     7     1
14    7     8     1
15    7     30    1
16    7     31    1
17    8     9     1
18    8     10    1
19    8     11    1
20    10    32    1
21    10    33    1
22    10    34    1
23    11    12    1
24    11    35    1
25    11    36    1
26    12    13    1
27    12    37    1
28    12    38    1
29    13    20    1
30    13    24    1
31    13    14    1
32    14    15    2
33    14    39    1
34    15    16    1
35    15    40    1
36    16    17    1
37    16    18    1
38    16    19    1
39    18    41    1
40    19    20    1
41    19    42    1
42    19    43    1
43    20    21    1
44    20    22    1
45    22    23    1
46    23    24    ar
@<TRIPOS>SUBSTRUCTURE
1   ZINC000000491073 1     RESIDUE    1   A     ZIN   1

@<TRIPOS>MOLECULE
ZINC000000491073
43    46    1     0     0
SMALL
USER_CHARGES
@<TRIPOS>ATOM
1      C1     -0.0173    1.4248    0.0099 C.3      1 ZINC000000491073    0.0200
2      O2      0.0021   -0.0041    0.0020 O.3      1 ZINC000000491073   -0.3000
3      C3     -1.2011   -0.6379    0.0101 C.ar     1 ZINC000000491073    0.1400
4      C4     -2.3960    0.0703    0.0194 C.ar     1 ZINC000000491073   -0.1600
5      C5     -3.6140   -0.5683    0.0032 C.ar     1 ZINC000000491073   -0.0900
6      C6     -3.7159   -1.9660   -0.0473 C.ar     1 ZINC000000491073   -0.1200
7      C7     -5.0999   -2.5143   -0.2334 C.3      1 ZINC000000491073    0.0500
8      N8     -5.1444   -3.6241   -1.1632 N.4      1 ZINC000000491073   -0.3600
9      H9     -6.1093   -3.8121   -1.3904 H        1 ZINC000000491073    0.4300
10     C10    -4.4470   -3.2281   -2.3940 C.3      1 ZINC000000491073   -0.0700
11     C11    -4.5479   -4.8352   -0.6761 C.3      1 ZINC000000491073   -0.0200
12     C12    -3.0677   -4.9414   -0.8999 C.3      1 ZINC000000491073   -0.1300
13     C13    -2.2687   -4.1502    0.1172 C.3      1 ZINC000000491073   -0.0100
14     C14    -2.5720   -4.5862    1.5116 C.2      1 ZINC000000491073   -0.1400
15     C15    -1.7187   -5.0912    2.3381 C.2      1 ZINC000000491073   -0.1500
16     C16    -0.2754   -5.3060    2.0118 C.3      1 ZINC000000491073    0.1300
17     H17     0.0431   -6.2633    2.4244 H        1 ZINC000000491073    0.0800
18     O18     0.4970   -4.2623    2.6086 O.3      1 ZINC000000491073   -0.5500
19     C19    -0.0296   -5.3066    0.5170 C.3      1 ZINC000000491073   -0.1200
20     C20    -0.7784   -4.2326   -0.2231 C.3      1 ZINC000000491073    0.1000
21     H21    -0.6842   -4.4147   -1.2936 H        1 ZINC000000491073    0.0900
22     O22    -0.2760   -2.9222    0.0631 O.3      1 ZINC000000491073   -0.2600
23     C23    -1.2937   -2.0359    0.0035 C.ar     1 ZINC000000491073    0.1000
24     C24    -2.5458   -2.6640   -0.0118 C.ar     1 ZINC000000491073   -0.1300
25     H25     1.0053    1.8021    0.0021 H        1 ZINC000000491073    0.1100
26     H26    -0.5445    1.7859   -0.8732 H        1 ZINC000000491073    0.0600
27     H27    -0.5275    1.7763    0.9067 H        1 ZINC000000491073    0.0600
28     H28    -2.3679    1.1497    0.0403 H        1 ZINC000000491073    0.1500
29     H29    -4.5172    0.0232    0.0305 H        1 ZINC000000491073    0.1400
30     H30    -5.4780   -2.8495    0.7324 H        1 ZINC000000491073    0.1300
31     H31    -5.7462   -1.7188   -0.6044 H        1 ZINC000000491073    0.1400
32     H32    -3.4118   -2.9788   -2.1609 H        1 ZINC000000491073    0.1300
33     H33    -4.4707   -4.0527   -3.1064 H        1 ZINC000000491073    0.1300
34     H34    -4.9412   -2.3588   -2.8279 H        1 ZINC000000491073    0.1300
35     H35    -4.7405   -4.9078    0.3943 H        1 ZINC000000491073    0.1300
36     H36    -5.0319   -5.6793   -1.1672 H        1 ZINC000000491073    0.1400
37     H37    -2.7761   -5.9899   -0.8389 H        1 ZINC000000491073    0.1200
38     H38    -2.8343   -4.5701   -1.8978 H        1 ZINC000000491073    0.1000
39     H39    -3.5883   -4.4695    1.8577 H        1 ZINC000000491073    0.1100
40     H40    -2.0668   -5.3740    3.3206 H        1 ZINC000000491073    0.1200
41     H41     0.4213   -4.2184    3.5716 H        1 ZINC000000491073    0.3800
42     H42     1.0374   -5.1714    0.3401 H        1 ZINC000000491073    0.1000
43     H43    -0.3252   -6.2763    0.1164 H        1 ZINC000000491073    0.1000
@<TRIPOS>BOND
1     1     2     1
2     1     25    1
3     1     26    1
4     1     27    1
5     2     3     1
6     3     23    ar
7     3     4     ar
8     4     5     ar
9     4     28    1
10    5     6     ar
11    5     29    1
12    6     24    ar
13    6     7     1
14    7     8     1
15    7     30    1
16    7     31    1
17    8     9     1
18    8     10    1
19    8     11    1
20    10    32    1
21    10    33    1
22    10    34    1
23    11    12    1
24    11    35    1
25    11    36    1
26    12    13    1
27    12    37    1
28    12    38    1
29    13    20    1
30    13    24    1
31    13    14    1
32    14    15    2
33    14    39    1
34    15    16    1
35    15    40    1
36    16    17    1
37    16    18    1
38    16    19    1
39    18    41    1
40    19    20    1
41    19    42    1
42    19    43    1
43    20    21    1
44    20    22    1
45    22    23    1
46    23    24    ar
@<TRIPOS>SUBSTRUCTURE
1   ZINC000000491073 1     RESIDUE    1   A     ZIN   1

@<TRIPOS>MOLECULE
ZINC000000491073
42    45    1     0     0
SMALL
USER_CHARGES
@<TRIPOS>ATOM
1      C1     -0.0173    1.4248    0.0099 C.3      1 ZINC000000491073    0.0300
2      O2      0.0021   -0.0041    0.0020 O.3      1 ZINC000000491073   -0.3100
3      C3     -1.2011   -0.6379    0.0101 C.ar     1 ZINC000000491073    0.1000
4      C4     -2.3957    0.0706    0.0194 C.ar     1 ZINC000000491073   -0.1600
5      C5     -3.6135   -0.5687    0.0046 C.ar     1 ZINC000000491073   -0.1200
6      C6     -3.7145   -1.9661   -0.0455 C.ar     1 ZINC000000491073   -0.0500
7      C7     -5.0991   -2.5165   -0.2251 C.3      1 ZINC000000491073    0.1200
8      N8     -5.1400   -3.6319   -1.1491 N.3      1 ZINC000000491073   -0.5700
9      C9     -6.5076   -3.8655   -1.6320 C.3      1 ZINC000000491073    0.0400
10     C10    -4.5408   -4.8539   -0.6882 C.3      1 ZINC000000491073    0.0700
11     C11    -3.0592   -4.9443   -0.9113 C.3      1 ZINC000000491073   -0.1000
12     C12    -2.2662   -4.1512    0.1094 C.3      1 ZINC000000491073   -0.0100
13     C13    -2.5699   -4.5938    1.5019 C.2      1 ZINC000000491073   -0.1100
14     C14    -1.7171   -5.1022    2.3268 C.2      1 ZINC000000491073   -0.1900
15     C15    -0.2735   -5.3149    2.0011 C.3      1 ZINC000000491073    0.1400
16     H16     0.0448   -6.2744    2.4088 H        1 ZINC000000491073    0.0700
17     O17     0.4980   -4.2743    2.6044 O.3      1 ZINC000000491073   -0.5500
18     C18    -0.0261   -5.3074    0.5064 C.3      1 ZINC000000491073   -0.1100
19     C19    -0.7751   -4.2308   -0.2289 C.3      1 ZINC000000491073    0.0900
20     H20    -0.6796   -4.4082   -1.3001 H        1 ZINC000000491073    0.0800
21     O21    -0.2747   -2.9210    0.0625 O.3      1 ZINC000000491073   -0.2700
22     C22    -1.2932   -2.0358    0.0035 C.ar     1 ZINC000000491073    0.0900
23     C23    -2.5448   -2.6655   -0.0132 C.ar     1 ZINC000000491073   -0.1100
24     H24     1.0053    1.8021    0.0021 H        1 ZINC000000491073    0.1000
25     H25    -0.5445    1.7859   -0.8732 H        1 ZINC000000491073    0.0500
26     H26    -0.5275    1.7763    0.9067 H        1 ZINC000000491073    0.0500
27     H27    -2.3677    1.1501    0.0391 H        1 ZINC000000491073    0.1300
28     H28    -4.5170    0.0223    0.0328 H        1 ZINC000000491073    0.1300
29     H29    -5.4749   -2.8472    0.7431 H        1 ZINC000000491073    0.0400
30     H30    -5.7470   -1.7243   -0.6003 H        1 ZINC000000491073    0.0900
31     H31    -6.8435   -3.0009   -2.2044 H        1 ZINC000000491073    0.0700
32     H32    -6.5220   -4.7504   -2.2682 H        1 ZINC000000491073    0.0700
33     H33    -7.1720   -4.0186   -0.7815 H        1 ZINC000000491073    0.0300
34     H34    -4.7359   -4.9529    0.3796 H        1 ZINC000000491073    0.0300
35     H35    -5.0189   -5.6881   -1.2016 H        1 ZINC000000491073    0.0700
36     H36    -2.7579   -5.9904   -0.8559 H        1 ZINC000000491073    0.0800
37     H37    -2.8293   -4.5659   -1.9073 H        1 ZINC000000491073    0.0800
38     H38    -3.5866   -4.4790    1.8479 H        1 ZINC000000491073    0.1100
39     H39    -2.0659   -5.3898    3.3076 H        1 ZINC000000491073    0.1100
40     H40     0.4211   -4.2356    3.5676 H        1 ZINC000000491073    0.3700
41     H41     1.0410   -5.1702    0.3313 H        1 ZINC000000491073    0.0900
42     H42    -0.3204   -6.2751    0.1004 H        1 ZINC000000491073    0.1000
@<TRIPOS>BOND
1     1     2     1
2     1     24    1
3     1     25    1
4     1     26    1
5     2     3     1
6     3     22    ar
7     3     4     ar
8     4     5     ar
9     4     27    1
10    5     6     ar
11    5     28    1
12    6     23    ar
13    6     7     1
14    7     8     1
15    7     29    1
16    7     30    1
17    8     9     1
18    8     10    1
19    9     31    1
20    9     32    1
21    9     33    1
22    10    11    1
23    10    34    1
24    10    35    1
25    11    12    1
26    11    36    1
27    11    37    1
28    12    19    1
29    12    23    1
30    12    13    1
31    13    14    2
32    13    38    1
33    14    15    1
34    14    39    1
35    15    16    1
36    15    17    1
37    15    18    1
38    17    40    1
39    18    19    1
40    18    41    1
41    18    42    1
42    19    20    1
43    19    21    1
44    21    22    1
45    22    23    ar
@<TRIPOS>SUBSTRUCTURE
1   ZINC000000491073 1     RESIDUE    1   A     ZIN   1
