@<TRIPOS>MOLECULE
ZINC000000000242
43    44    1     0     0
SMALL
USER_CHARGES
@<TRIPOS>ATOM
1      C1      0.5182    2.2333    0.8426 C.3      1 ZINC000000000242   -0.0500
2      N2      0.2785    0.7877    0.9465 N.4      1 ZINC000000000242   -0.3900
3      H3      0.8842    0.3963    1.6521 H        1 ZINC000000000242    0.4300
4      C4     -1.1229    0.5491    1.3168 C.3      1 ZINC000000000242   -0.0500
5      C5      0.5584    0.1508   -0.3473 C.3      1 ZINC000000000242    0.0000
6      C6      2.0464    0.2919   -0.6739 C.3      1 ZINC000000000242    0.0200
7      O7      2.8155   -0.4404    0.2822 O.3      1 ZINC000000000242   -0.3800
8      C8      4.2159   -0.4733   -0.0007 C.3      1 ZINC000000000242    0.2300
9      C9      4.7608    0.9557   -0.0456 C.3      1 ZINC000000000242   -0.1600
10     C10     4.9281   -1.2488    1.0775 C.ar     1 ZINC000000000242   -0.0800
11     C11     6.2822   -1.5034    0.9659 C.ar     1 ZINC000000000242   -0.1000
12     C12     6.9355   -2.2148    1.9548 C.ar     1 ZINC000000000242   -0.1100
13     C13     6.2348   -2.6712    3.0555 C.ar     1 ZINC000000000242   -0.1100
14     C14     4.8809   -2.4157    3.1676 C.ar     1 ZINC000000000242   -0.1200
15     C15     4.2285   -1.7007    2.1807 C.ar     1 ZINC000000000242   -0.1000
16     C16     4.4437   -1.1398   -1.3329 C.ar     1 ZINC000000000242    0.0800
17     C17     3.9401   -2.4069   -1.5575 C.ar     1 ZINC000000000242   -0.1500
18     C18     4.1550   -3.0113   -2.7870 C.ar     1 ZINC000000000242   -0.0700
19     C19     4.8714   -2.3151   -3.7482 C.ar     1 ZINC000000000242   -0.1600
20     C20     5.3444   -1.0507   -3.4513 C.ar     1 ZINC000000000242    0.1000
21     N21     5.1168   -0.5050   -2.2727 N.ar     1 ZINC000000000242   -0.4700
22     H22     1.5580    2.4104    0.5678 H        1 ZINC000000000242    0.1200
23     H23    -0.1361    2.6563    0.0803 H        1 ZINC000000000242    0.1200
24     H24     0.3105    2.7060    1.8026 H        1 ZINC000000000242    0.1300
25     H25    -1.7772    0.9720    0.5545 H        1 ZINC000000000242    0.1200
26     H26    -1.3007   -0.5235    1.3939 H        1 ZINC000000000242    0.1200
27     H27    -1.3306    1.0217    2.2768 H        1 ZINC000000000242    0.1300
28     H28     0.2962   -0.9060   -0.2963 H        1 ZINC000000000242    0.1400
29     H29    -0.0319    0.6344   -1.1256 H        1 ZINC000000000242    0.1400
30     H30     2.2382   -0.1013   -1.6723 H        1 ZINC000000000242    0.0900
31     H31     2.3282    1.3442   -0.6376 H        1 ZINC000000000242    0.0800
32     H32     4.5959    1.4379    0.9180 H        1 ZINC000000000242    0.0700
33     H33     5.8289    0.9307   -0.2614 H        1 ZINC000000000242    0.0900
34     H34     4.2456    1.5167   -0.8254 H        1 ZINC000000000242    0.0700
35     H35     6.8296   -1.1469    0.1059 H        1 ZINC000000000242    0.1200
36     H36     7.9933   -2.4144    1.8673 H        1 ZINC000000000242    0.1300
37     H37     6.7451   -3.2276    3.8278 H        1 ZINC000000000242    0.1300
38     H38     4.3334   -2.7726    4.0274 H        1 ZINC000000000242    0.1300
39     H39     3.1707   -1.5011    2.2683 H        1 ZINC000000000242    0.1200
40     H40     3.3865   -2.9201   -0.7852 H        1 ZINC000000000242    0.1300
41     H41     3.7735   -4.0009   -2.9907 H        1 ZINC000000000242    0.1400
42     H42     5.0579   -2.7553   -4.7166 H        1 ZINC000000000242    0.1400
43     H43     5.9038   -0.5019   -4.1945 H        1 ZINC000000000242    0.1600
@<TRIPOS>BOND
1     1     2     1
2     1     22    1
3     1     23    1
4     1     24    1
5     2     3     1
6     2     4     1
7     2     5     1
8     4     25    1
9     4     26    1
10    4     27    1
11    5     6     1
12    5     28    1
13    5     29    1
14    6     7     1
15    6     30    1
16    6     31    1
17    7     8     1
18    8     9     1
19    8     10    1
20    8     16    1
21    9     32    1
22    9     33    1
23    9     34    1
24    10    15    ar
25    10    11    ar
26    11    12    ar
27    11    35    1
28    12    13    ar
29    12    36    1
30    13    14    ar
31    13    37    1
32    14    15    ar
33    14    38    1
34    15    39    1
35    16    21    ar
36    16    17    ar
37    17    18    ar
38    17    40    1
39    18    19    ar
40    18    41    1
41    19    20    ar
42    19    42    1
43    20    21    ar
44    20    43    1
@<TRIPOS>SUBSTRUCTURE
1   ZINC000000000242 1     RESIDUE    1   A     ZIN   1

@<TRIPOS>MOLECULE
ZINC000000000242
42    43    1     0     0
SMALL
USER_CHARGES
@<TRIPOS>ATOM
1      C1      1.2531    0.0160   -0.3508 C.3      1 ZINC000000000242    0.0200
2      N2      0.2048   -0.0190    0.6776 N.3      1 ZINC000000000242   -0.5400
3      C3      0.0518    1.2941    1.3183 C.3      1 ZINC000000000242    0.0300
4      C4     -1.0705   -0.4815    0.1139 C.3      1 ZINC000000000242    0.0600
5      C5     -1.0158   -1.9960   -0.0963 C.3      1 ZINC000000000242    0.0600
6      O6     -0.8665   -2.6471    1.1670 O.3      1 ZINC000000000242   -0.3500
7      C7     -0.8388   -4.0735    1.0859 C.3      1 ZINC000000000242    0.2100
8      C8     -2.0931   -4.5677    0.3624 C.3      1 ZINC000000000242   -0.1800
9      C9      0.3856   -4.5097    0.3234 C.ar     1 ZINC000000000242   -0.0900
10     C10     1.4972   -3.6895    0.2731 C.ar     1 ZINC000000000242   -0.1000
11     C11     2.6204   -4.0896   -0.4263 C.ar     1 ZINC000000000242   -0.1300
12     C12     2.6322   -5.3101   -1.0752 C.ar     1 ZINC000000000242   -0.1200
13     C13     1.5209   -6.1308   -1.0242 C.ar     1 ZINC000000000242   -0.1200
14     C14     0.3993   -5.7326   -0.3211 C.ar     1 ZINC000000000242   -0.1000
15     C15    -0.7987   -4.6549    2.4757 C.ar     1 ZINC000000000242    0.1400
16     C16    -1.7494   -4.2736    3.4032 C.ar     1 ZINC000000000242   -0.1400
17     C17    -1.7039   -4.8148    4.6791 C.ar     1 ZINC000000000242   -0.0800
18     C18    -0.6993   -5.7232    4.9751 C.ar     1 ZINC000000000242   -0.1700
19     C19     0.2170   -6.0569    3.9955 C.ar     1 ZINC000000000242    0.1000
20     N20     0.1400   -5.5259    2.7910 N.ar     1 ZINC000000000242   -0.4600
21     H21     2.1865    0.3618    0.0934 H        1 ZINC000000000242    0.0700
22     H22     1.3942   -0.9844   -0.7599 H        1 ZINC000000000242    0.0700
23     H23     0.9566    0.6965   -1.1490 H        1 ZINC000000000242    0.0200
24     H24    -0.1412    2.0497    0.5567 H        1 ZINC000000000242    0.0200
25     H25    -0.7834    1.2619    2.0180 H        1 ZINC000000000242    0.0700
26     H26     0.9664    1.5451    1.8555 H        1 ZINC000000000242    0.0700
27     H27    -1.8808   -0.2391    0.8014 H        1 ZINC000000000242    0.0800
28     H28    -1.2453    0.0119   -0.8422 H        1 ZINC000000000242    0.0500
29     H29    -1.9383   -2.3305   -0.5707 H        1 ZINC000000000242    0.0600
30     H30    -0.1681   -2.2437   -0.7352 H        1 ZINC000000000242    0.0600
31     H31    -2.1222   -4.1472   -0.6428 H        1 ZINC000000000242    0.0700
32     H32    -2.0720   -5.6557    0.3006 H        1 ZINC000000000242    0.0700
33     H33    -2.9788   -4.2522    0.9139 H        1 ZINC000000000242    0.0700
34     H34     1.4880   -2.7359    0.7801 H        1 ZINC000000000242    0.1300
35     H35     3.4885   -3.4484   -0.4662 H        1 ZINC000000000242    0.1200
36     H36     3.5094   -5.6224   -1.6222 H        1 ZINC000000000242    0.1200
37     H37     1.5300   -7.0842   -1.5314 H        1 ZINC000000000242    0.1200
38     H38    -0.4689   -6.3737   -0.2812 H        1 ZINC000000000242    0.1200
39     H39    -2.5179   -3.5627    3.1379 H        1 ZINC000000000242    0.1400
40     H40    -2.4334   -4.5350    5.4247 H        1 ZINC000000000242    0.1400
41     H41    -0.6333   -6.1643    5.9587 H        1 ZINC000000000242    0.1400
42     H42     1.0028   -6.7635    4.2181 H        1 ZINC000000000242    0.1600
@<TRIPOS>BOND
1     1     2     1
2     1     21    1
3     1     22    1
4     1     23    1
5     2     3     1
6     2     4     1
7     3     24    1
8     3     25    1
9     3     26    1
10    4     5     1
11    4     27    1
12    4     28    1
13    5     6     1
14    5     29    1
15    5     30    1
16    6     7     1
17    7     8     1
18    7     9     1
19    7     15    1
20    8     31    1
21    8     32    1
22    8     33    1
23    9     14    ar
24    9     10    ar
25    10    11    ar
26    10    34    1
27    11    12    ar
28    11    35    1
29    12    13    ar
30    12    36    1
31    13    14    ar
32    13    37    1
33    14    38    1
34    15    20    ar
35    15    16    ar
36    16    17    ar
37    16    39    1
38    17    18    ar
39    17    40    1
40    18    19    ar
41    18    41    1
42    19    20    ar
43    19    42    1
@<TRIPOS>SUBSTRUCTURE
1   ZINC000000000242 1     RESIDUE    1   A     ZIN   1
