@<TRIPOS>MOLECULE
ZINC000001530940
49    50    1     0     0
SMALL
USER_CHARGES
@<TRIPOS>ATOM
1      C1     -0.0187    1.5258    0.0104 C.3      1 ZINC000001530940   -0.1500
2      C2      0.0021   -0.0041    0.0020 C.3      1 ZINC000001530940   -0.1200
3      C3     -1.4333   -0.5336    0.0129 C.3      1 ZINC000001530940   -0.1200
4      C4     -1.4126   -2.0635    0.0045 C.3      1 ZINC000001530940    0.0500
5      O5     -2.7532   -2.5581    0.0146 O.3      1 ZINC000001530940   -0.3000
6      C6     -2.9127   -3.9053    0.0089 C.ar     1 ZINC000001530940    0.1800
7      C7     -1.7967   -4.7352   -0.0004 C.ar     1 ZINC000001530940   -0.2200
8      C8     -1.9524   -6.0975   -0.0062 C.ar     1 ZINC000001530940   -0.0100
9      C9     -3.2379   -6.6528   -0.0023 C.ar     1 ZINC000001530940   -0.2300
10     C10    -3.4106   -8.1112   -0.0080 C.2      1 ZINC000001530940    0.4100
11     O11    -2.4387   -8.8370   -0.0161 O.2      1 ZINC000001530940   -0.4500
12     C12    -4.7952   -8.7061   -0.0037 C.3      1 ZINC000001530940   -0.2000
13     C13    -4.6944  -10.2328   -0.0111 C.3      1 ZINC000001530940    0.0000
14     N14    -6.0441  -10.8126   -0.0070 N.4      1 ZINC000001530940   -0.3800
15     H15    -6.5637  -10.4470    0.7768 H        1 ZINC000001530940    0.4200
16     C16    -5.9474  -12.2726    0.1102 C.3      1 ZINC000001530940   -0.0100
17     C17    -7.3513  -12.8752    0.1966 C.3      1 ZINC000001530940   -0.1500
18     C18    -8.1347  -12.5139   -1.0687 C.3      1 ZINC000001530940   -0.1400
19     C19    -8.1654  -10.9903   -1.2205 C.3      1 ZINC000001530940   -0.1500
20     C20    -6.7308  -10.4590   -1.2551 C.3      1 ZINC000001530940   -0.0100
21     C21    -4.3583   -5.8127    0.0076 C.ar     1 ZINC000001530940   -0.0300
22     C22    -4.1916   -4.4518    0.0182 C.ar     1 ZINC000001530940   -0.1700
23     H23     1.0039    1.9031    0.0027 H        1 ZINC000001530940    0.0600
24     H24    -0.5459    1.8868   -0.8726 H        1 ZINC000001530940    0.0600
25     H25    -0.5289    1.8773    0.9072 H        1 ZINC000001530940    0.0600
26     H26     0.5123   -0.3556   -0.8948 H        1 ZINC000001530940    0.0700
27     H27     0.5293   -0.3651    0.8851 H        1 ZINC000001530940    0.0700
28     H28    -1.9435   -0.1821    0.9097 H        1 ZINC000001530940    0.0800
29     H29    -1.9605   -0.1726   -0.8702 H        1 ZINC000001530940    0.0800
30     H30    -0.9024   -2.4150   -0.8923 H        1 ZINC000001530940    0.0700
31     H31    -0.8854   -2.4246    0.8875 H        1 ZINC000001530940    0.0700
32     H32    -0.8057   -4.3059   -0.0034 H        1 ZINC000001530940    0.1400
33     H33    -1.0851   -6.7411   -0.0142 H        1 ZINC000001530940    0.1400
34     H34    -5.3274   -8.3814    0.8904 H        1 ZINC000001530940    0.1200
35     H35    -5.3363   -8.3734   -0.8895 H        1 ZINC000001530940    0.1200
36     H36    -4.1622  -10.5574   -0.9052 H        1 ZINC000001530940    0.1400
37     H37    -4.1533  -10.5654    0.8747 H        1 ZINC000001530940    0.1400
38     H38    -5.4335  -12.6735   -0.7634 H        1 ZINC000001530940    0.1300
39     H39    -5.3869  -12.5281    1.0095 H        1 ZINC000001530940    0.1300
40     H40    -7.2774  -13.9594    0.2817 H        1 ZINC000001530940    0.1100
41     H41    -7.8660  -12.4751    1.0701 H        1 ZINC000001530940    0.0900
42     H42    -7.6481  -12.9570   -1.9376 H        1 ZINC000001530940    0.0800
43     H43    -9.1535  -12.8927   -0.9873 H        1 ZINC000001530940    0.0900
44     H44    -8.6735  -10.7272   -2.1483 H        1 ZINC000001530940    0.1100
45     H45    -8.6971  -10.5511   -0.3764 H        1 ZINC000001530940    0.0900
46     H46    -6.7479   -9.3745   -1.3633 H        1 ZINC000001530940    0.1300
47     H47    -6.2010  -10.8992   -2.1000 H        1 ZINC000001530940    0.1300
48     H48    -5.3519   -6.2361    0.0102 H        1 ZINC000001530940    0.1300
49     H49    -5.0549   -3.8030    0.0261 H        1 ZINC000001530940    0.1400
@<TRIPOS>BOND
1     1     2     1
2     1     23    1
3     1     24    1
4     1     25    1
5     2     3     1
6     2     26    1
7     2     27    1
8     3     4     1
9     3     28    1
10    3     29    1
11    4     5     1
12    4     30    1
13    4     31    1
14    5     6     1
15    6     22    ar
16    6     7     ar
17    7     8     ar
18    7     32    1
19    8     9     ar
20    8     33    1
21    9     10    1
22    9     21    ar
23    10    11    2
24    10    12    1
25    12    13    1
26    12    34    1
27    12    35    1
28    13    14    1
29    13    36    1
30    13    37    1
31    14    15    1
32    14    20    1
33    14    16    1
34    16    17    1
35    16    38    1
36    16    39    1
37    17    18    1
38    17    40    1
39    17    41    1
40    18    19    1
41    18    42    1
42    18    43    1
43    19    20    1
44    19    44    1
45    19    45    1
46    20    46    1
47    20    47    1
48    21    22    ar
49    21    48    1
50    22    49    1
@<TRIPOS>SUBSTRUCTURE
1   ZINC000001530940 1     RESIDUE    1   A     ZIN   1

@<TRIPOS>MOLECULE
ZINC000001530940
48    49    1     0     0
SMALL
USER_CHARGES
@<TRIPOS>ATOM
1      C1     -0.0187    1.5258    0.0104 C.3      1 ZINC000001530940   -0.1500
2      C2      0.0021   -0.0041    0.0020 C.3      1 ZINC000001530940   -0.1200
3      C3      0.7182   -0.4975   -1.2568 C.3      1 ZINC000001530940   -0.1200
4      C4      0.7390   -2.0273   -1.2652 C.3      1 ZINC000001530940    0.0600
5      O5      1.4078   -2.4882   -2.4409 O.3      1 ZINC000001530940   -0.3100
6      C6      1.5135   -3.8309   -2.6031 C.ar     1 ZINC000001530940    0.1700
7      C7      0.9767   -4.6885   -1.6487 C.ar     1 ZINC000001530940   -0.2200
8      C8      1.0808   -6.0465   -1.8079 C.ar     1 ZINC000001530940   -0.0200
9      C9      1.7285   -6.5694   -2.9340 C.ar     1 ZINC000001530940   -0.2100
10     C10     1.8424   -8.0229   -3.1098 C.2      1 ZINC000001530940    0.4000
11     O11     1.3751   -8.7728   -2.2788 O.2      1 ZINC000001530940   -0.4600
12     C12     2.5399   -8.5829   -4.3226 C.3      1 ZINC000001530940   -0.1700
13     C13     2.5197  -10.1115   -4.2622 C.3      1 ZINC000001530940    0.0600
14     N14     3.1996  -10.6574   -5.4445 N.3      1 ZINC000001530940   -0.5400
15     C15     2.7596   -9.9734   -6.6672 C.3      1 ZINC000001530940    0.0500
16     C16     3.5904  -10.4644   -7.8550 C.3      1 ZINC000001530940   -0.1200
17     C17     3.4149  -11.9782   -8.0033 C.3      1 ZINC000001530940   -0.1200
18     C18     3.8344  -12.6629   -6.6996 C.3      1 ZINC000001530940   -0.1200
19     C19     2.9966  -12.1082   -5.5453 C.3      1 ZINC000001530940    0.0600
20     C20     2.2667   -5.7014   -3.8922 C.ar     1 ZINC000001530940   -0.0300
21     C21     2.1530   -4.3451   -3.7259 C.ar     1 ZINC000001530940   -0.1700
22     H22     1.0039    1.9031    0.0027 H        1 ZINC000001530940    0.0600
23     H23    -0.5459    1.8868   -0.8726 H        1 ZINC000001530940    0.0600
24     H24    -0.5289    1.8773    0.9072 H        1 ZINC000001530940    0.0600
25     H25     0.5293   -0.3651    0.8851 H        1 ZINC000001530940    0.0700
26     H26    -1.0205   -0.3814    0.0098 H        1 ZINC000001530940    0.0700
27     H27     0.1910   -0.1364   -2.1398 H        1 ZINC000001530940    0.0800
28     H28     1.7408   -0.1202   -1.2645 H        1 ZINC000001530940    0.0800
29     H29     1.2661   -2.3884   -0.3821 H        1 ZINC000001530940    0.0700
30     H30    -0.2836   -2.4046   -1.2575 H        1 ZINC000001530940    0.0700
31     H31     0.4774   -4.2842   -0.7806 H        1 ZINC000001530940    0.1300
32     H32     0.6643   -6.7116   -1.0659 H        1 ZINC000001530940    0.1400
33     H33     2.0265   -8.2481   -5.2240 H        1 ZINC000001530940    0.1000
34     H34     3.5723   -8.2336   -4.3416 H        1 ZINC000001530940    0.1100
35     H35     3.0332  -10.4464   -3.3609 H        1 ZINC000001530940    0.0800
36     H36     1.4873  -10.4608   -4.2432 H        1 ZINC000001530940    0.0400
37     H37     1.7066  -10.1907   -6.8459 H        1 ZINC000001530940    0.0300
38     H38     2.8936   -8.8980   -6.5500 H        1 ZINC000001530940    0.0800
39     H39     3.2530   -9.9680   -8.7649 H        1 ZINC000001530940    0.0700
40     H40     4.6420  -10.2350   -7.6831 H        1 ZINC000001530940    0.0700
41     H41     2.3697  -12.2049   -8.2138 H        1 ZINC000001530940    0.0600
42     H42     4.0387  -12.3388   -8.8212 H        1 ZINC000001530940    0.0600
43     H43     3.6715  -13.7374   -6.7840 H        1 ZINC000001530940    0.0700
44     H44     4.8899  -12.4682   -6.5095 H        1 ZINC000001530940    0.0700
45     H45     3.3027  -12.5834   -4.6133 H        1 ZINC000001530940    0.0800
46     H46     1.9424  -12.3155   -5.7293 H        1 ZINC000001530940    0.0300
47     H47     2.7675   -6.0997   -4.7622 H        1 ZINC000001530940    0.1400
48     H48     2.5675   -3.6749   -4.4645 H        1 ZINC000001530940    0.1400
@<TRIPOS>BOND
1     1     2     1
2     1     22    1
3     1     23    1
4     1     24    1
5     2     3     1
6     2     25    1
7     2     26    1
8     3     4     1
9     3     27    1
10    3     28    1
11    4     5     1
12    4     29    1
13    4     30    1
14    5     6     1
15    6     21    ar
16    6     7     ar
17    7     8     ar
18    7     31    1
19    8     9     ar
20    8     32    1
21    9     10    1
22    9     20    ar
23    10    11    2
24    10    12    1
25    12    13    1
26    12    33    1
27    12    34    1
28    13    14    1
29    13    35    1
30    13    36    1
31    14    19    1
32    14    15    1
33    15    16    1
34    15    37    1
35    15    38    1
36    16    17    1
37    16    39    1
38    16    40    1
39    17    18    1
40    17    41    1
41    17    42    1
42    18    19    1
43    18    43    1
44    18    44    1
45    19    45    1
46    19    46    1
47    20    21    ar
48    20    47    1
49    21    48    1
@<TRIPOS>SUBSTRUCTURE
1   ZINC000001530940 1     RESIDUE    1   A     ZIN   1
