@<TRIPOS>MOLECULE
ZINC000000057513
44    45    1     0     0
SMALL
USER_CHARGES
@<TRIPOS>ATOM
1      C1     -0.0173    1.4248    0.0099 C.3      1 ZINC000000057513    0.0200
2      O2      0.0021   -0.0041    0.0020 O.3      1 ZINC000000057513   -0.3200
3      C3      0.6058   -0.6071   -1.0557 C.ar     1 ZINC000000057513    0.1400
4      C4      1.1730    0.1607   -2.0624 C.ar     1 ZINC000000057513   -0.2100
5      C5      1.7865   -0.4547   -3.1363 C.ar     1 ZINC000000057513   -0.0500
6      C6      1.8352   -1.8346   -3.2086 C.ar     1 ZINC000000057513   -0.1600
7      C7      2.5046   -2.5033   -4.3815 C.3      1 ZINC000000057513    0.1800
8      N8      3.9227   -2.7134   -4.0797 N.pl3    1 ZINC000000057513   -0.5800
9      C9      4.3586   -3.9554   -3.4365 C.3      1 ZINC000000057513    0.1100
10     C10     4.6964   -4.9936   -4.5085 C.3      1 ZINC000000057513   -0.0300
11     N11     5.1334   -6.2390   -3.8636 N.4      1 ZINC000000057513   -0.3800
12     H12     5.9003   -6.0426   -3.2379 H        1 ZINC000000057513    0.4300
13     C13     4.0162   -6.8148   -3.1032 C.3      1 ZINC000000057513   -0.0500
14     C14     5.5712   -7.1944   -4.8899 C.3      1 ZINC000000057513   -0.0500
15     C15     4.8507   -1.7385   -4.4022 C.ar     1 ZINC000000057513    0.5600
16     N16     6.1299   -1.9470   -4.1273 N.ar     1 ZINC000000057513   -0.5800
17     C17     7.0423   -1.0360   -4.4229 C.ar     1 ZINC000000057513    0.1900
18     C18     6.6457    0.1468   -5.0269 C.ar     1 ZINC000000057513   -0.2700
19     C19     5.2997    0.3323   -5.3005 C.ar     1 ZINC000000057513    0.2000
20     N20     4.4394   -0.6212   -4.9836 N.ar     1 ZINC000000057513   -0.5600
21     C21     1.2710   -2.6021   -2.2063 C.ar     1 ZINC000000057513   -0.0700
22     C22     0.6609   -1.9915   -1.1277 C.ar     1 ZINC000000057513   -0.1600
23     H23     1.0053    1.8021    0.0021 H        1 ZINC000000057513    0.0600
24     H24    -0.5445    1.7859   -0.8732 H        1 ZINC000000057513    0.0600
25     H25    -0.5275    1.7763    0.9067 H        1 ZINC000000057513    0.1100
26     H26     1.1347    1.2385   -2.0068 H        1 ZINC000000057513    0.1300
27     H27     2.2283    0.1425   -3.9203 H        1 ZINC000000057513    0.1300
28     H28     2.0276   -3.4646   -4.5726 H        1 ZINC000000057513    0.0800
29     H29     2.4108   -1.8695   -5.2632 H        1 ZINC000000057513    0.1000
30     H30     5.2423   -3.7594   -2.8293 H        1 ZINC000000057513    0.1100
31     H31     3.5586   -4.3359   -2.8015 H        1 ZINC000000057513    0.1000
32     H32     3.8127   -5.1896   -5.1157 H        1 ZINC000000057513    0.1300
33     H33     5.4964   -4.6131   -5.1435 H        1 ZINC000000057513    0.1300
34     H34     4.3406   -7.7389   -2.6246 H        1 ZINC000000057513    0.1300
35     H35     3.6914   -6.1059   -2.3416 H        1 ZINC000000057513    0.1200
36     H36     3.1878   -7.0270   -3.7790 H        1 ZINC000000057513    0.1200
37     H37     6.4002   -6.7671   -5.4541 H        1 ZINC000000057513    0.1200
38     H38     5.8955   -8.1185   -4.4114 H        1 ZINC000000057513    0.1300
39     H39     4.7428   -7.4066   -5.5658 H        1 ZINC000000057513    0.1200
40     H40     8.0835   -1.2115   -4.1959 H        1 ZINC000000057513    0.1700
41     H41     7.3699    0.9076   -5.2786 H        1 ZINC000000057513    0.1500
42     H42     4.9579    1.2428   -5.7702 H        1 ZINC000000057513    0.1700
43     H43     1.3106   -3.6797   -2.2649 H        1 ZINC000000057513    0.1200
44     H44     0.2204   -2.5913   -0.3451 H        1 ZINC000000057513    0.1300
@<TRIPOS>BOND
1     1     2     1
2     1     23    1
3     1     24    1
4     1     25    1
5     2     3     1
6     3     22    ar
7     3     4     ar
8     4     5     ar
9     4     26    1
10    5     6     ar
11    5     27    1
12    6     7     1
13    6     21    ar
14    7     8     1
15    7     28    1
16    7     29    1
17    8     9     1
18    8     15    1
19    9     10    1
20    9     30    1
21    9     31    1
22    10    11    1
23    10    32    1
24    10    33    1
25    11    12    1
26    11    13    1
27    11    14    1
28    13    34    1
29    13    35    1
30    13    36    1
31    14    37    1
32    14    38    1
33    14    39    1
34    15    20    ar
35    15    16    ar
36    16    17    ar
37    17    18    ar
38    17    40    1
39    18    19    ar
40    18    41    1
41    19    20    ar
42    19    42    1
43    21    22    ar
44    21    43    1
45    22    44    1
@<TRIPOS>SUBSTRUCTURE
1   ZINC000000057513 1     RESIDUE    1   A     ZIN   1

@<TRIPOS>MOLECULE
ZINC000000057513
43    44    1     0     0
SMALL
USER_CHARGES
@<TRIPOS>ATOM
1      C1     -0.0173    1.4248    0.0099 C.3      1 ZINC000000057513    0.0300
2      O2      0.0021   -0.0041    0.0020 O.3      1 ZINC000000057513   -0.3200
3      C3      0.6258   -0.6184    1.0415 C.ar     1 ZINC000000057513    0.1300
4      C4      1.2022    0.1384    2.0513 C.ar     1 ZINC000000057513   -0.2100
5      C5      1.8353   -0.4884    3.1070 C.ar     1 ZINC000000057513   -0.0500
6      C6      1.8951   -1.8688    3.1577 C.ar     1 ZINC000000057513   -0.1500
7      C7      2.5867   -2.5500    4.3104 C.3      1 ZINC000000057513    0.1800
8      N8      1.6200   -2.7967    5.3831 N.pl3    1 ZINC000000057513   -0.5800
9      C9      0.8645   -4.0515    5.4141 C.3      1 ZINC000000057513    0.1300
10     C10     1.6402   -5.0940    6.2217 C.3      1 ZINC000000057513    0.0400
11     N11     0.8827   -6.3522    6.2528 N.3      1 ZINC000000057513   -0.5400
12     C12     1.6943   -7.4417    6.8116 C.3      1 ZINC000000057513    0.0300
13     C13    -0.3716   -6.1932    7.0008 C.3      1 ZINC000000057513    0.0200
14     C14     1.4204   -1.8443    6.3673 C.ar     1 ZINC000000057513    0.5700
15     N15     0.5462   -2.0857    7.3332 N.ar     1 ZINC000000057513   -0.5700
16     C16     0.3321   -1.1969    8.2892 C.ar     1 ZINC000000057513    0.1900
17     C17     1.0350   -0.0024    8.2715 C.ar     1 ZINC000000057513   -0.2900
18     C18     1.9417    0.2178    7.2466 C.ar     1 ZINC000000057513    0.1900
19     N19     2.1120   -0.7150    6.3242 N.ar     1 ZINC000000057513   -0.5700
20     C20     1.3210   -2.6254    2.1528 C.ar     1 ZINC000000057513   -0.0600
21     C21     0.6822   -2.0034    1.0976 C.ar     1 ZINC000000057513   -0.1600
22     H22     1.0053    1.8021    0.0021 H        1 ZINC000000057513    0.0600
23     H23    -0.5445    1.7859   -0.8732 H        1 ZINC000000057513    0.1000
24     H24    -0.5275    1.7763    0.9067 H        1 ZINC000000057513    0.0500
25     H25     1.1564    1.2167    2.0118 H        1 ZINC000000057513    0.1300
26     H26     2.2842    0.1003    3.8934 H        1 ZINC000000057513    0.1300
27     H27     3.0056   -3.4983    3.9736 H        1 ZINC000000057513    0.0900
28     H28     3.3874   -1.9109    4.6827 H        1 ZINC000000057513    0.1000
29     H29    -0.1060   -3.8798    5.8796 H        1 ZINC000000057513    0.0900
30     H30     0.7203   -4.4140    4.3963 H        1 ZINC000000057513    0.0800
31     H31     2.6108   -5.2657    5.7562 H        1 ZINC000000057513    0.0700
32     H32     1.7844   -4.7315    7.2395 H        1 ZINC000000057513    0.0400
33     H33     1.9923   -7.1880    7.8289 H        1 ZINC000000057513    0.0200
34     H34     1.1095   -8.3615    6.8230 H        1 ZINC000000057513    0.0700
35     H35     2.5835   -7.5842    6.1974 H        1 ZINC000000057513    0.0700
36     H36    -0.9843   -5.4280    6.5242 H        1 ZINC000000057513    0.0700
37     H37    -0.9127   -7.1394    7.0082 H        1 ZINC000000057513    0.0700
38     H38    -0.1485   -5.8942    8.0250 H        1 ZINC000000057513    0.0300
39     H39    -0.3820   -1.3993    9.0737 H        1 ZINC000000057513    0.1600
40     H40     0.8793    0.7408    9.0395 H        1 ZINC000000057513    0.1400
41     H41     2.5052    1.1382    7.2036 H        1 ZINC000000057513    0.1700
42     H42     1.3687   -3.7035    2.1948 H        1 ZINC000000057513    0.1300
43     H43     0.2339   -2.5948    0.3129 H        1 ZINC000000057513    0.1300
@<TRIPOS>BOND
1     1     2     1
2     1     22    1
3     1     23    1
4     1     24    1
5     2     3     1
6     3     21    ar
7     3     4     ar
8     4     5     ar
9     4     25    1
10    5     6     ar
11    5     26    1
12    6     7     1
13    6     20    ar
14    7     8     1
15    7     27    1
16    7     28    1
17    8     9     1
18    8     14    1
19    9     10    1
20    9     29    1
21    9     30    1
22    10    11    1
23    10    31    1
24    10    32    1
25    11    12    1
26    11    13    1
27    12    33    1
28    12    34    1
29    12    35    1
30    13    36    1
31    13    37    1
32    13    38    1
33    14    19    ar
34    14    15    ar
35    15    16    ar
36    16    17    ar
37    16    39    1
38    17    18    ar
39    17    40    1
40    18    19    ar
41    18    41    1
42    20    21    ar
43    20    42    1
44    21    43    1
@<TRIPOS>SUBSTRUCTURE
1   ZINC000000057513 1     RESIDUE    1   A     ZIN   1
