@<TRIPOS>MOLECULE
ZINC000004632106
  31   32    0    0    0
SMALL
USER_CHARGES
NO_NAME
@<TRIPOS>ATOM
    1 C1       -0.4794     1.4430    -0.3035 C.3    1 <0>      -0.1200
    2 C2       -0.2183    -0.0331    -0.1478 C.ar   1 <0>      -0.0900
    3 C3       -0.2261    -0.8570    -1.2575 C.ar   1 <0>      -0.1200
    4 C4        0.0133    -2.2112    -1.1146 C.ar   1 <0>      -0.1200
    5 C5        0.2610    -2.7409     0.1377 C.ar   1 <0>      -0.1100
    6 C6        0.2697    -1.9165     1.2476 C.ar   1 <0>      -0.0700
    7 C7        0.5393    -2.4941     2.6131 C.3    1 <0>       0.0300
    8 H8        0.5968    -1.6875     3.3440 H      1 <0>       0.1000
    9 C9        1.8648    -3.2579     2.5912 C.3    1 <0>      -0.1400
   10 C10      -0.5763    -3.4347     2.9899 C.2    1 <0>       0.0200
   11 C11      -0.6615    -4.7361     2.6542 C.2    1 <0>      -0.0500
   12 N12      -1.8246    -5.2101     3.1982 N.pl3  1 <0>      -0.5700
   13 C13      -2.4102    -4.1811     3.8479 C.2    1 <0>       0.1800
   14 N14      -1.6554    -3.1238     3.7232 N.2    1 <0>      -0.4900
   15 C15       0.0346    -0.5621     1.1043 C.ar   1 <0>      -0.0800
   16 C16       0.0441     0.3365     2.3140 C.3    1 <0>      -0.1200
   17 H17       0.4634     1.9625    -0.4750 H      1 <0>       0.0700
   18 H18      -1.1441     1.6069    -1.1517 H      1 <0>       0.0600
   19 H19      -0.9462     1.8270     0.6035 H      1 <0>       0.0700
   20 H20      -0.4197    -0.4431    -2.2360 H      1 <0>       0.1200
   21 H21       0.0065    -2.8552    -1.9816 H      1 <0>       0.1200
   22 H22       0.4474    -3.7988     0.2494 H      1 <0>       0.1200
   23 H23       1.8073    -4.0646     1.8604 H      1 <0>       0.0600
   24 H24       2.6717    -2.5776     2.3187 H      1 <0>       0.0600
   25 H25       2.0598    -3.6757     3.5789 H      1 <0>       0.0600
   26 H26       0.0509    -5.2977     2.0680 H      1 <0>       0.1700
   27 H27      -2.1648    -6.1159     3.1298 H      1 <0>       0.4200
   28 H28      -3.3459    -4.2267     4.3851 H      1 <0>       0.2100
   29 H29       1.0681     0.6381     2.5345 H      1 <0>       0.0700
   30 H30      -0.5602     1.2213     2.1141 H      1 <0>       0.0700
   31 H31      -0.3687    -0.2000     3.1684 H      1 <0>       0.0800
@<TRIPOS>BOND
   1    1    2 1
   2    1   17 1
   3    1   18 1
   4    1   19 1
   5    2   15 ar
   6    2    3 ar
   7    3    4 ar
   8    3   20 1
   9    4    5 ar
  10    4   21 1
  11    5    6 ar
  12    5   22 1
  13    6    7 1
  14    6   15 ar
  15    7    8 1
  16    7    9 1
  17    7   10 1
  18    9   23 1
  19    9   24 1
  20    9   25 1
  21   10   14 1
  22   10   11 2
  23   11   12 1
  24   11   26 1
  25   12   13 1
  26   12   27 1
  27   13   14 2
  28   13   28 1
  29   15   16 1
  30   16   29 1
  31   16   30 1
  32   16   31 1

@<TRIPOS>MOLECULE
ZINC000004632106
  32   33    0    0    0
SMALL
USER_CHARGES
NO_NAME
@<TRIPOS>ATOM
    1 C1       -0.5182     1.2033    -0.3104 C.3    1 <0>      -0.1300
    2 C2       -0.2726    -0.2752    -0.1526 C.ar   1 <0>      -0.0700
    3 C3       -0.3044    -1.1029    -1.2590 C.ar   1 <0>      -0.1000
    4 C4       -0.0791    -2.4593    -1.1142 C.ar   1 <0>      -0.1100
    5 C5        0.1784    -2.9874     0.1368 C.ar   1 <0>      -0.1300
    6 C6        0.2111    -2.1593     1.2434 C.ar   1 <0>      -0.1000
    7 C7        0.4914    -2.7352     2.6075 C.3    1 <0>       0.0100
    8 H8        0.5946    -1.9253     3.3297 H      1 <0>       0.1100
    9 C9        1.7879    -3.5463     2.5621 C.3    1 <0>      -0.1500
   10 C10      -0.6481    -3.6319     3.0180 C.2    1 <0>       0.0400
   11 C11      -1.3516    -4.4409     2.2030 C.2    1 <0>       0.0300
   12 N12      -2.2853    -5.0714     2.9805 N.pl3  1 <0>      -0.5100
   13 C13      -2.1196    -4.6255     4.2444 C.cat  1 <0>       0.3000
   14 N14      -1.1355    -3.7686     4.2601 N.pl3  1 <0>      -0.4700
   15 H15      -0.8112    -3.3004     5.0452 H      1 <0>       0.4600
   16 C16      -0.0099    -0.8027     1.0981 C.ar   1 <0>      -0.0700
   17 C17       0.0258     0.1000     2.3043 C.3    1 <0>      -0.1300
   18 H18       0.4283     1.7111    -0.4959 H      1 <0>       0.0800
   19 H19      -1.1918     1.3721    -1.1505 H      1 <0>       0.0700
   20 H20      -0.9687     1.5961     0.6011 H      1 <0>       0.0700
   21 H21      -0.5056    -0.6902    -2.2365 H      1 <0>       0.1300
   22 H22      -0.1047    -3.1062    -1.9787 H      1 <0>       0.1300
   23 H23       0.3537    -4.0471     0.2500 H      1 <0>       0.1200
   24 H24       1.6846    -4.3562     1.8400 H      1 <0>       0.0700
   25 H25       2.6120    -2.8977     2.2652 H      1 <0>       0.0800
   26 H26       1.9906    -3.9629     3.5488 H      1 <0>       0.0700
   27 H27      -1.2072    -4.5676     1.1403 H      1 <0>       0.2200
   28 H28      -2.9430    -5.7178     2.6797 H      1 <0>       0.4700
   29 H29      -2.7024    -4.9306     5.1009 H      1 <0>       0.2700
   30 H30       1.0545     0.4007     2.5028 H      1 <0>       0.0800
   31 H31      -0.5812     0.9852     2.1138 H      1 <0>       0.0800
   32 H32      -0.3702    -0.4329     3.1688 H      1 <0>       0.0600
@<TRIPOS>BOND
   1    1    2 1
   2    1   18 1
   3    1   19 1
   4    1   20 1
   5    2   16 ar
   6    2    3 ar
   7    3    4 ar
   8    3   21 1
   9    4    5 ar
  10    4   22 1
  11    5    6 ar
  12    5   23 1
  13    6    7 1
  14    6   16 ar
  15    7    8 1
  16    7    9 1
  17    7   10 1
  18    9   24 1
  19    9   25 1
  20    9   26 1
  21   10   14 1
  22   10   11 2
  23   11   12 1
  24   11   27 1
  25   12   13 ar
  26   12   28 1
  27   13   14 ar
  28   13   29 1
  29   14   15 1
  30   16   17 1
  31   17   30 1
  32   17   31 1
  33   17   32 1
