@<TRIPOS>MOLECULE
ZINC000001530703
35    35    1     0     0
SMALL
USER_CHARGES
@<TRIPOS>ATOM
1      C1     -0.0187    1.5258    0.0104 C.3      1 ZINC000001530703   -0.1500
2      C2      0.0021   -0.0041    0.0020 C.3      1 ZINC000001530703   -0.1200
3      C3      0.7421   -0.5109    1.2415 C.3      1 ZINC000001530703   -0.1300
4      C4      0.7628   -2.0407    1.2331 C.3      1 ZINC000001530703    0.1400
5      N5      1.4714   -2.5260    2.4200 N.am     1 ZINC000001530703   -0.7400
6      C6      1.6145   -3.8504    2.6248 C.2      1 ZINC000001530703    0.7400
7      O7      1.1549   -4.6436    1.8234 O.2      1 ZINC000001530703   -0.6400
8      N8      2.2597   -4.2924    3.7056 N.am     1 ZINC000001530703   -1.2500
9      S9      2.4183   -5.7600    3.9326 S.o2     1 ZINC000001530703    2.6900
10     O10     1.0909   -6.3876    4.0296 O.2      1 ZINC000001530703   -1.0300
11     O11     3.1602   -6.3528    2.8085 O.3      1 ZINC000001530703   -1.0300
12     C12     3.3066   -6.0301    5.4301 C.ar     1 ZINC000001530703   -0.6100
13     C13     4.6863   -6.1131    5.4100 C.ar     1 ZINC000001530703   -0.0200
14     C14     5.3832   -6.3250    6.5849 C.ar     1 ZINC000001530703   -0.1500
15     C15     4.7004   -6.4535    7.7799 C.ar     1 ZINC000001530703   -0.0600
16     C16     5.4601   -6.6850    9.0607 C.3      1 ZINC000001530703   -0.1200
17     C17     3.3208   -6.3691    7.8003 C.ar     1 ZINC000001530703   -0.1500
18     C18     2.6242   -6.1534    6.6259 C.ar     1 ZINC000001530703   -0.0200
19     H19     1.0039    1.9031    0.0027 H        1 ZINC000001530703    0.0500
20     H20    -0.5459    1.8868   -0.8726 H        1 ZINC000001530703    0.0500
21     H21    -0.5289    1.8773    0.9072 H        1 ZINC000001530703    0.0500
22     H22    -1.0205   -0.3814    0.0098 H        1 ZINC000001530703    0.0600
23     H23     0.5123   -0.3556   -0.8948 H        1 ZINC000001530703    0.0600
24     H24     1.7647   -0.1336    1.2338 H        1 ZINC000001530703    0.0700
25     H25     0.2319   -0.1594    2.1383 H        1 ZINC000001530703    0.0700
26     H26    -0.2598   -2.4180    1.2409 H        1 ZINC000001530703    0.0600
27     H27     1.2730   -2.3923    0.3363 H        1 ZINC000001530703    0.0600
28     H28     1.8375   -1.8942    3.0584 H        1 ZINC000001530703    0.3900
29     H29     5.2198   -6.0127    4.4763 H        1 ZINC000001530703    0.1300
30     H30     6.4611   -6.3906    6.5691 H        1 ZINC000001530703    0.1300
31     H31     5.7072   -5.7255    9.5151 H        1 ZINC000001530703    0.0700
32     H32     4.8447   -7.2650    9.7484 H        1 ZINC000001530703    0.0700
33     H33     6.3780   -7.2319    8.8449 H        1 ZINC000001530703    0.0700
34     H34     2.7874   -6.4691    8.7340 H        1 ZINC000001530703    0.1300
35     H35     1.5463   -6.0875    6.6418 H        1 ZINC000001530703    0.1300
@<TRIPOS>BOND
1     1     2     1
2     1     19    1
3     1     20    1
4     1     21    1
5     2     3     1
6     2     22    1
7     2     23    1
8     3     4     1
9     3     24    1
10    3     25    1
11    4     5     1
12    4     26    1
13    4     27    1
14    5     6     am
15    5     28    1
16    6     7     2
17    6     8     1
18    8     9     2
19    9     10    2
20    9     11    1
21    9     12    1
22    12    18    ar
23    12    13    ar
24    13    14    ar
25    13    29    1
26    14    15    ar
27    14    30    1
28    15    16    1
29    15    17    ar
30    16    31    1
31    16    32    1
32    16    33    1
33    17    18    ar
34    17    34    1
35    18    35    1
@<TRIPOS>SUBSTRUCTURE
1   ZINC000001530703 1     RESIDUE    1   A     ZIN   1

@<TRIPOS>MOLECULE
ZINC000001530703
35    35    1     0     0
SMALL
USER_CHARGES
@<TRIPOS>ATOM
1      C1     -0.0187    1.5258    0.0104 C.3      1 ZINC000001530703   -0.1500
2      C2      0.0021   -0.0041    0.0020 C.3      1 ZINC000001530703   -0.1200
3      C3      0.7421   -0.5109    1.2415 C.3      1 ZINC000001530703   -0.1300
4      C4      0.7628   -2.0407    1.2331 C.3      1 ZINC000001530703    0.1400
5      N5      1.4714   -2.5260    2.4200 N.am     1 ZINC000001530703   -0.7400
6      C6      1.6145   -3.8504    2.6248 C.2      1 ZINC000001530703    0.7100
7      O7      1.1556   -4.6425    1.8245 O.2      1 ZINC000001530703   -0.6800
8      N8      2.2664   -4.2969    3.7167 N.pl3    1 ZINC000001530703   -1.1500
9      S9      2.4422   -5.9242    3.9684 S.o2     1 ZINC000001530703    2.6600
10     O10     1.1380   -6.4372    4.2029 O.2      1 ZINC000001530703   -1.0200
11     O11     3.2903   -6.4010    2.9327 O.2      1 ZINC000001530703   -1.0200
12     C12     3.3343   -6.1257    5.4744 C.ar     1 ZINC000001530703   -0.6300
13     C13     4.7155   -6.1817    5.4574 C.ar     1 ZINC000001530703   -0.0200
14     C14     5.4154   -6.3397    6.6389 C.ar     1 ZINC000001530703   -0.1500
15     C15     4.7342   -6.4413    7.8375 C.ar     1 ZINC000001530703   -0.0600
16     C16     5.4972   -6.6141    9.1255 C.3      1 ZINC000001530703   -0.1100
17     C17     3.3531   -6.3839    7.8547 C.ar     1 ZINC000001530703   -0.1500
18     C18     2.6534   -6.2220    6.6735 C.ar     1 ZINC000001530703   -0.0200
19     H19     1.0039    1.9031    0.0027 H        1 ZINC000001530703    0.0500
20     H20    -0.5459    1.8868   -0.8726 H        1 ZINC000001530703    0.0500
21     H21    -0.5289    1.8773    0.9072 H        1 ZINC000001530703    0.0500
22     H22    -1.0205   -0.3814    0.0098 H        1 ZINC000001530703    0.0600
23     H23     0.5123   -0.3556   -0.8948 H        1 ZINC000001530703    0.0600
24     H24     1.7647   -0.1336    1.2338 H        1 ZINC000001530703    0.0600
25     H25     0.2319   -0.1594    2.1383 H        1 ZINC000001530703    0.0600
26     H26    -0.2598   -2.4180    1.2409 H        1 ZINC000001530703    0.0500
27     H27     1.2730   -2.3923    0.3363 H        1 ZINC000001530703    0.0500
28     H28     1.8375   -1.8942    3.0584 H        1 ZINC000001530703    0.3900
29     H29     5.2476   -6.1023    4.5210 H        1 ZINC000001530703    0.1400
30     H30     6.4944   -6.3842    6.6256 H        1 ZINC000001530703    0.1200
31     H31     5.7246   -5.6350    9.5473 H        1 ZINC000001530703    0.0700
32     H32     4.8929   -7.1827    9.8324 H        1 ZINC000001530703    0.0700
33     H33     6.4260   -7.1495    8.9286 H        1 ZINC000001530703    0.0700
34     H34     2.8210   -6.4629    8.7911 H        1 ZINC000001530703    0.1200
35     H35     1.5744   -6.1772    6.6869 H        1 ZINC000001530703    0.1400
@<TRIPOS>BOND
1     1     2     1
2     1     19    1
3     1     20    1
4     1     21    1
5     2     3     1
6     2     22    1
7     2     23    1
8     3     4     1
9     3     24    1
10    3     25    1
11    4     5     1
12    4     26    1
13    4     27    1
14    5     6     am
15    5     28    1
16    6     7     2
17    6     8     1
18    8     9     1
19    9     10    2
20    9     11    2
21    9     12    1
22    12    18    ar
23    12    13    ar
24    13    14    ar
25    13    29    1
26    14    15    ar
27    14    30    1
28    15    16    1
29    15    17    ar
30    16    31    1
31    16    32    1
32    16    33    1
33    17    18    ar
34    17    34    1
35    18    35    1
@<TRIPOS>SUBSTRUCTURE
1   ZINC000001530703 1     RESIDUE    1   A     ZIN   1

@<TRIPOS>MOLECULE
ZINC000001530703
35    35    1     0     0
SMALL
USER_CHARGES
@<TRIPOS>ATOM
1      C1     -0.0187    1.5258    0.0104 C.3      1 ZINC000001530703   -0.1500
2      C2      0.0021   -0.0041    0.0020 C.3      1 ZINC000001530703   -0.1200
3      C3      0.7421   -0.5109    1.2415 C.3      1 ZINC000001530703   -0.1300
4      C4      0.7628   -2.0407    1.2331 C.3      1 ZINC000001530703    0.1400
5      N5      1.4714   -2.5260    2.4200 N.pl3    1 ZINC000001530703   -0.7300
6      C6      1.6172   -3.8757    2.6287 C.2      1 ZINC000001530703    0.6800
7      O7      1.1073   -4.7557    1.7395 O.3      1 ZINC000001530703   -0.7500
8      N8      2.2464   -4.3066    3.6827 N.am     1 ZINC000001530703   -1.1100
9      S9      2.4223   -5.9339    3.9343 S.o2     1 ZINC000001530703    2.6800
10     O10     1.1181   -6.4469    4.1689 O.2      1 ZINC000001530703   -1.0100
11     O11     3.2704   -6.4108    2.8987 O.2      1 ZINC000001530703   -1.0100
12     C12     3.3144   -6.1354    5.4404 C.ar     1 ZINC000001530703   -0.6300
13     C13     4.6956   -6.1914    5.4234 C.ar     1 ZINC000001530703   -0.0200
14     C14     5.3955   -6.3494    6.6049 C.ar     1 ZINC000001530703   -0.1500
15     C15     4.7143   -6.4510    7.8035 C.ar     1 ZINC000001530703   -0.0500
16     C16     5.4773   -6.6238    9.0915 C.3      1 ZINC000001530703   -0.1200
17     C17     3.3332   -6.3936    7.8206 C.ar     1 ZINC000001530703   -0.1500
18     C18     2.6335   -6.2317    6.6395 C.ar     1 ZINC000001530703   -0.0200
19     H19     1.0039    1.9031    0.0027 H        1 ZINC000001530703    0.0500
20     H20    -0.5459    1.8868   -0.8726 H        1 ZINC000001530703    0.0500
21     H21    -0.5289    1.8773    0.9072 H        1 ZINC000001530703    0.0500
22     H22    -1.0205   -0.3814    0.0098 H        1 ZINC000001530703    0.0600
23     H23     0.5123   -0.3556   -0.8948 H        1 ZINC000001530703    0.0600
24     H24     1.7647   -0.1336    1.2338 H        1 ZINC000001530703    0.0600
25     H25     0.2319   -0.1594    2.1383 H        1 ZINC000001530703    0.0600
26     H26    -0.2598   -2.4180    1.2409 H        1 ZINC000001530703    0.0500
27     H27     1.2730   -2.3923    0.3363 H        1 ZINC000001530703    0.0500
28     H28     1.8375   -1.8942    3.0584 H        1 ZINC000001530703    0.3900
29     H29     5.2277   -6.1120    4.4870 H        1 ZINC000001530703    0.1400
30     H30     6.4745   -6.3939    6.5916 H        1 ZINC000001530703    0.1200
31     H31     5.7047   -5.6448    9.5133 H        1 ZINC000001530703    0.0700
32     H32     4.8730   -7.1924    9.7983 H        1 ZINC000001530703    0.0700
33     H33     6.4061   -7.1592    8.8946 H        1 ZINC000001530703    0.0700
34     H34     2.8011   -6.4726    8.7571 H        1 ZINC000001530703    0.1200
35     H35     1.5545   -6.1869    6.6529 H        1 ZINC000001530703    0.1400
@<TRIPOS>BOND
1     1     2     1
2     1     19    1
3     1     20    1
4     1     21    1
5     2     3     1
6     2     22    1
7     2     23    1
8     3     4     1
9     3     24    1
10    3     25    1
11    4     5     1
12    4     26    1
13    4     27    1
14    5     6     1
15    5     28    1
16    6     7     1
17    6     8     2
18    8     9     am
19    9     10    2
20    9     11    2
21    9     12    1
22    12    18    ar
23    12    13    ar
24    13    14    ar
25    13    29    1
26    14    15    ar
27    14    30    1
28    15    16    1
29    15    17    ar
30    16    31    1
31    16    32    1
32    16    33    1
33    17    18    ar
34    17    34    1
35    18    35    1
@<TRIPOS>SUBSTRUCTURE
1   ZINC000001530703 1     RESIDUE    1   A     ZIN   1

@<TRIPOS>MOLECULE
ZINC000001530703
36    36    1     0     0
SMALL
USER_CHARGES
@<TRIPOS>ATOM
1      C1     -0.0187    1.5258    0.0104 C.3      1 ZINC000001530703   -0.1500
2      C2      0.0021   -0.0041    0.0020 C.3      1 ZINC000001530703   -0.1200
3      C3      0.7421   -0.5109    1.2415 C.3      1 ZINC000001530703   -0.1300
4      C4      0.7628   -2.0407    1.2331 C.3      1 ZINC000001530703    0.1100
5      N5      1.4714   -2.5260    2.4200 N.pl3    1 ZINC000001530703   -0.6600
6      C6      1.6172   -3.8757    2.6287 C.2      1 ZINC000001530703    0.7000
7      O7      1.1073   -4.7557    1.7395 O.3      1 ZINC000001530703   -0.5000
8      N8      2.2464   -4.3066    3.6827 N.am     1 ZINC000001530703   -1.0500
9      S9      2.4223   -5.9339    3.9343 S.o2     1 ZINC000001530703    2.6400
10     O10     1.1181   -6.4469    4.1689 O.2      1 ZINC000001530703   -0.9800
11     O11     3.2704   -6.4108    2.8987 O.2      1 ZINC000001530703   -0.9800
12     C12     3.3144   -6.1354    5.4404 C.ar     1 ZINC000001530703   -0.6400
13     C13     4.6956   -6.1914    5.4234 C.ar     1 ZINC000001530703   -0.0100
14     C14     5.3955   -6.3494    6.6049 C.ar     1 ZINC000001530703   -0.1400
15     C15     4.7143   -6.4510    7.8035 C.ar     1 ZINC000001530703   -0.0300
16     C16     5.4773   -6.6238    9.0915 C.3      1 ZINC000001530703   -0.1300
17     C17     3.3332   -6.3936    7.8206 C.ar     1 ZINC000001530703   -0.1400
18     C18     2.6335   -6.2317    6.6395 C.ar     1 ZINC000001530703   -0.0100
19     H19     1.0039    1.9031    0.0027 H        1 ZINC000001530703    0.0600
20     H20    -0.5459    1.8868   -0.8726 H        1 ZINC000001530703    0.0600
21     H21    -0.5289    1.8773    0.9072 H        1 ZINC000001530703    0.0600
22     H22    -1.0205   -0.3814    0.0098 H        1 ZINC000001530703    0.0700
23     H23     0.5123   -0.3556   -0.8948 H        1 ZINC000001530703    0.0700
24     H24     1.7647   -0.1336    1.2338 H        1 ZINC000001530703    0.0800
25     H25     0.2319   -0.1594    2.1383 H        1 ZINC000001530703    0.0800
26     H26    -0.2598   -2.4180    1.2409 H        1 ZINC000001530703    0.0800
27     H27     1.2730   -2.3923    0.3363 H        1 ZINC000001530703    0.0800
28     H28     1.8375   -1.8942    3.0584 H        1 ZINC000001530703    0.4400
29     H29     1.2597   -5.6820    1.9714 H        1 ZINC000001530703    0.4100
30     H30     5.2277   -6.1120    4.4870 H        1 ZINC000001530703    0.1400
31     H31     6.4745   -6.3939    6.5916 H        1 ZINC000001530703    0.1300
32     H32     5.7047   -5.6448    9.5133 H        1 ZINC000001530703    0.0800
33     H33     4.8730   -7.1924    9.7983 H        1 ZINC000001530703    0.0700
34     H34     6.4061   -7.1592    8.8946 H        1 ZINC000001530703    0.0700
35     H35     2.8011   -6.4726    8.7571 H        1 ZINC000001530703    0.1300
36     H36     1.5545   -6.1869    6.6529 H        1 ZINC000001530703    0.1400
@<TRIPOS>BOND
1     1     2     1
2     1     19    1
3     1     20    1
4     1     21    1
5     2     3     1
6     2     22    1
7     2     23    1
8     3     4     1
9     3     24    1
10    3     25    1
11    4     5     1
12    4     26    1
13    4     27    1
14    5     6     1
15    5     28    1
16    6     7     1
17    6     8     2
18    7     29    1
19    8     9     am
20    9     10    2
21    9     11    2
22    9     12    1
23    12    18    ar
24    12    13    ar
25    13    14    ar
26    13    30    1
27    14    15    ar
28    14    31    1
29    15    16    1
30    15    17    ar
31    16    32    1
32    16    33    1
33    16    34    1
34    17    18    ar
35    17    35    1
36    18    36    1
@<TRIPOS>SUBSTRUCTURE
1   ZINC000001530703 1     RESIDUE    1   A     ZIN   1
