@<TRIPOS>MOLECULE
ZINC000000000122
40    41    1     0     0
SMALL
USER_CHARGES
@<TRIPOS>ATOM
1      C1     -0.0178    1.4648    0.0101 C.3      1 ZINC000000000122   -0.0500
2      N2      0.0021   -0.0041    0.0020 N.4      1 ZINC000000000122   -0.3900
3      H3      0.4744   -0.3295   -0.8281 H        1 ZINC000000000122    0.4300
4      C4      0.7126   -0.4907    1.1921 C.3      1 ZINC000000000122   -0.0500
5      C5     -1.3761   -0.5125    0.0124 C.3      1 ZINC000000000122    0.0000
6      C6     -2.0780   -0.1101   -1.2861 C.3      1 ZINC000000000122    0.0200
7      O7     -1.4443   -0.7583   -2.3908 O.3      1 ZINC000000000122   -0.3800
8      C8     -2.0264   -0.4484   -3.6585 C.3      1 ZINC000000000122    0.2000
9      H9     -2.4473    0.5567   -3.6291 H        1 ZINC000000000122    0.1000
10     C10    -0.9672   -0.5184   -4.7282 C.ar     1 ZINC000000000122   -0.0900
11     C11    -0.0201   -1.5249   -4.6979 C.ar     1 ZINC000000000122   -0.0800
12     C12     0.9516   -1.5895   -5.6788 C.ar     1 ZINC000000000122   -0.1100
13     C13     0.9762   -0.6467   -6.6910 C.ar     1 ZINC000000000122   -0.0200
14     Cl14    2.1959   -0.7277   -7.9236 Cl       1 ZINC000000000122   -0.0600
15     C15     0.0280    0.3603   -6.7208 C.ar     1 ZINC000000000122   -0.1100
16     C16    -0.9466    0.4207   -5.7426 C.ar     1 ZINC000000000122   -0.0800
17     C17    -3.1176   -1.4411   -3.9663 C.ar     1 ZINC000000000122    0.0900
18     C18    -3.4751   -2.3793   -3.0168 C.ar     1 ZINC000000000122   -0.1600
19     C19    -4.4807   -3.2880   -3.3098 C.ar     1 ZINC000000000122   -0.0700
20     C20    -5.0914   -3.2183   -4.5524 C.ar     1 ZINC000000000122   -0.1600
21     C21    -4.6806   -2.2522   -5.4516 C.ar     1 ZINC000000000122    0.1100
22     N22    -3.7241   -1.4010   -5.1368 N.ar     1 ZINC000000000122   -0.4700
23     H23     1.0047    1.8421    0.0024 H        1 ZINC000000000122    0.1300
24     H24    -0.5450    1.8259   -0.8730 H        1 ZINC000000000122    0.1200
25     H25    -0.5280    1.8163    0.9069 H        1 ZINC000000000122    0.1200
26     H26     0.2024   -0.1392    2.0889 H        1 ZINC000000000122    0.1200
27     H27     0.7273   -1.5806    1.1861 H        1 ZINC000000000122    0.1200
28     H28     1.7352   -0.1134    1.1844 H        1 ZINC000000000122    0.1300
29     H29    -1.3618   -1.5992    0.0960 H        1 ZINC000000000122    0.1400
30     H30    -1.9129   -0.0898    0.8617 H        1 ZINC000000000122    0.1500
31     H31    -3.1251   -0.4096   -1.2411 H        1 ZINC000000000122    0.1000
32     H32    -2.0144    0.9705   -1.4137 H        1 ZINC000000000122    0.0800
33     H33    -0.0392   -2.2606   -3.9075 H        1 ZINC000000000122    0.1300
34     H34     1.6917   -2.3757   -5.6548 H        1 ZINC000000000122    0.1400
35     H35     0.0468    1.0968   -7.5105 H        1 ZINC000000000122    0.1400
36     H36    -1.6870    1.2065   -5.7659 H        1 ZINC000000000122    0.1400
37     H37    -2.9773   -2.4047   -2.0587 H        1 ZINC000000000122    0.1300
38     H38    -4.7808   -4.0325   -2.5873 H        1 ZINC000000000122    0.1400
39     H39    -5.8780   -3.9103   -4.8147 H        1 ZINC000000000122    0.1400
40     H40    -5.1510   -2.1915   -6.4218 H        1 ZINC000000000122    0.1600
@<TRIPOS>BOND
1     1     2     1
2     1     23    1
3     1     24    1
4     1     25    1
5     2     3     1
6     2     4     1
7     2     5     1
8     4     26    1
9     4     27    1
10    4     28    1
11    5     6     1
12    5     29    1
13    5     30    1
14    6     7     1
15    6     31    1
16    6     32    1
17    7     8     1
18    8     9     1
19    8     10    1
20    8     17    1
21    10    16    ar
22    10    11    ar
23    11    12    ar
24    11    33    1
25    12    13    ar
26    12    34    1
27    13    14    1
28    13    15    ar
29    15    16    ar
30    15    35    1
31    16    36    1
32    17    22    ar
33    17    18    ar
34    18    19    ar
35    18    37    1
36    19    20    ar
37    19    38    1
38    20    21    ar
39    20    39    1
40    21    22    ar
41    21    40    1
@<TRIPOS>SUBSTRUCTURE
1   ZINC000000000122 1     RESIDUE    1   A     ZIN   1

@<TRIPOS>MOLECULE
ZINC000000000122
39    40    1     0     0
SMALL
USER_CHARGES
@<TRIPOS>ATOM
1      C1      0.7022    0.0035   -1.1576 C.3      1 ZINC000000000122    0.0200
2      N2      0.0014   -0.0157    0.1333 N.3      1 ZINC000000000122   -0.5400
3      C3     -0.0546    1.3290    0.7220 C.3      1 ZINC000000000122    0.0200
4      C4     -1.3452   -0.5855   -0.0071 C.3      1 ZINC000000000122    0.0500
5      C5     -1.2440   -2.1060   -0.1440 C.3      1 ZINC000000000122    0.0600
6      O6     -0.7133   -2.6586    1.0623 O.3      1 ZINC000000000122   -0.3500
7      C7     -0.5772   -4.0810    1.0394 C.3      1 ZINC000000000122    0.1800
8      H8     -0.3906   -4.4117    0.0177 H        1 ZINC000000000122    0.0900
9      C9      0.5768   -4.4894    1.9183 C.ar     1 ZINC000000000122   -0.0700
10     C10     0.7807   -3.8554    3.1297 C.ar     1 ZINC000000000122   -0.0700
11     C11     1.8390   -4.2295    3.9363 C.ar     1 ZINC000000000122   -0.1200
12     C12     2.6942   -5.2388    3.5310 C.ar     1 ZINC000000000122   -0.0300
13     Cl13    4.0232   -5.7096    4.5438 Cl       1 ZINC000000000122   -0.0700
14     C14     2.4895   -5.8729    2.3185 C.ar     1 ZINC000000000122   -0.1100
15     C15     1.4276   -5.5017    1.5154 C.ar     1 ZINC000000000122   -0.0800
16     C16    -1.8457   -4.7152    1.5488 C.ar     1 ZINC000000000122    0.1000
17     C17    -2.9376   -3.9200    1.8402 C.ar     1 ZINC000000000122   -0.1600
18     C18    -4.1003   -4.5136    2.3080 C.ar     1 ZINC000000000122   -0.0800
19     C19    -4.1207   -5.8908    2.4657 C.ar     1 ZINC000000000122   -0.1700
20     C20    -2.9895   -6.6213    2.1536 C.ar     1 ZINC000000000122    0.1000
21     N21    -1.9027   -6.0234    1.7063 N.ar     1 ZINC000000000122   -0.4700
22     H22     1.6964    0.4300   -1.0250 H        1 ZINC000000000122    0.0700
23     H23     0.7911   -1.0141   -1.5379 H        1 ZINC000000000122    0.0700
24     H24     0.1388    0.6088   -1.8678 H        1 ZINC000000000122    0.0300
25     H25    -0.5080    2.0187    0.0100 H        1 ZINC000000000122    0.0200
26     H26    -0.6526    1.3022    1.6329 H        1 ZINC000000000122    0.0700
27     H27     0.9550    1.6639    0.9598 H        1 ZINC000000000122    0.0700
28     H28    -1.9378   -0.3387    0.8739 H        1 ZINC000000000122    0.0800
29     H29    -1.8241   -0.1719   -0.8946 H        1 ZINC000000000122    0.0500
30     H30    -2.2348   -2.5210   -0.3287 H        1 ZINC000000000122    0.0600
31     H31    -0.5857   -2.3528   -0.9770 H        1 ZINC000000000122    0.0500
32     H32     0.1133   -3.0674    3.4458 H        1 ZINC000000000122    0.1300
33     H33     1.9984   -3.7339    4.8825 H        1 ZINC000000000122    0.1300
34     H34     3.1570   -6.6605    2.0015 H        1 ZINC000000000122    0.1300
35     H35     1.2676   -5.9969    0.5691 H        1 ZINC000000000122    0.1300
36     H36    -2.8860   -2.8497    1.7056 H        1 ZINC000000000122    0.1400
37     H37    -4.9691   -3.9172    2.5442 H        1 ZINC000000000122    0.1400
38     H38    -5.0091   -6.3866    2.8282 H        1 ZINC000000000122    0.1400
39     H39    -2.9971   -7.6945    2.2741 H        1 ZINC000000000122    0.1600
@<TRIPOS>BOND
1     1     2     1
2     1     22    1
3     1     23    1
4     1     24    1
5     2     3     1
6     2     4     1
7     3     25    1
8     3     26    1
9     3     27    1
10    4     5     1
11    4     28    1
12    4     29    1
13    5     6     1
14    5     30    1
15    5     31    1
16    6     7     1
17    7     8     1
18    7     9     1
19    7     16    1
20    9     15    ar
21    9     10    ar
22    10    11    ar
23    10    32    1
24    11    12    ar
25    11    33    1
26    12    13    1
27    12    14    ar
28    14    15    ar
29    14    34    1
30    15    35    1
31    16    21    ar
32    16    17    ar
33    17    18    ar
34    17    36    1
35    18    19    ar
36    18    37    1
37    19    20    ar
38    19    38    1
39    20    21    ar
40    20    39    1
@<TRIPOS>SUBSTRUCTURE
1   ZINC000000000122 1     RESIDUE    1   A     ZIN   1
