@<TRIPOS>MOLECULE
ZINC000000154964
  40   41    0    0    0
SMALL
USER_CHARGES
NO_NAME
@<TRIPOS>ATOM
    1 C1       -2.0201     0.4996     0.7420 C.3    1 <0>      -0.1100
    2 C2       -0.9496    -0.4874     0.3535 C.ar   1 <0>      -0.0600
    3 C3       -1.0419    -1.1724    -0.8422 C.ar   1 <0>      -0.1200
    4 C4       -0.0603    -2.0786    -1.1992 C.ar   1 <0>      -0.1100
    5 C5        1.0167    -2.3017    -0.3611 C.ar   1 <0>      -0.1200
    6 C6        1.1151    -1.6196     0.8358 C.ar   1 <0>      -0.0900
    7 C7        2.2894    -1.8630     1.7484 C.3    1 <0>      -0.1100
    8 C8        0.1337    -0.7050     1.1948 C.ar   1 <0>       0.1300
    9 N9        0.2307    -0.0119     2.4065 N.am   1 <0>      -0.6800
   10 C10       0.4210     1.3223     2.4063 C.2    1 <0>       0.5200
   11 O11       0.4125     1.9360     1.3601 O.2    1 <0>      -0.5000
   12 C12       0.6445     2.0518     3.7059 C.3    1 <0>       0.0700
   13 H13       1.2887     1.4547     4.3514 H      1 <0>       0.0600
   14 C14      -0.7002     2.2816     4.3994 C.3    1 <0>      -0.1100
   15 C15      -0.4703     3.0405     5.7093 C.3    1 <0>      -0.1200
   16 C16       0.2418     4.3618     5.4063 C.3    1 <0>      -0.1200
   17 C17       1.5592     4.0716     4.6836 C.3    1 <0>       0.0600
   18 N18       1.2852     3.3454     3.4370 N.3    1 <0>      -0.5200
   19 C19       2.5125     3.1710     2.6488 C.3    1 <0>       0.0100
   20 H20      -1.8177     1.4603     0.2685 H      1 <0>       0.0800
   21 H21      -2.9915     0.1301     0.4134 H      1 <0>       0.0700
   22 H22      -2.0254     0.6223     1.8251 H      1 <0>       0.0600
   23 H23      -1.8818    -1.0004    -1.4990 H      1 <0>       0.1300
   24 H24      -0.1352    -2.6135    -2.1344 H      1 <0>       0.1300
   25 H25       1.7816    -3.0103    -0.6425 H      1 <0>       0.1300
   26 H26       3.0937    -1.1713     1.4979 H      1 <0>       0.0700
   27 H27       1.9843    -1.7060     2.7830 H      1 <0>       0.0600
   28 H28       2.6397    -2.8877     1.6244 H      1 <0>       0.0700
   29 H29       0.1609    -0.4917     3.2466 H      1 <0>       0.4100
   30 H30      -1.3498     2.8672     3.7488 H      1 <0>       0.0800
   31 H31      -1.1685     1.3208     4.6129 H      1 <0>       0.0700
   32 H32      -1.4294     3.2444     6.1853 H      1 <0>       0.0700
   33 H33       0.1474     2.4383     6.3756 H      1 <0>       0.0600
   34 H34      -0.3930     4.9800     4.7715 H      1 <0>       0.0700
   35 H35       0.4465     4.8871     6.3391 H      1 <0>       0.0700
   36 H36       2.0619     5.0111     4.4537 H      1 <0>       0.0800
   37 H37       2.1990     3.4649     5.3244 H      1 <0>       0.0300
   38 H38       3.2137     2.5459     3.2017 H      1 <0>       0.0200
   39 H39       2.2699     2.6930     1.6997 H      1 <0>       0.0900
   40 H40       2.9646     4.1447     2.4600 H      1 <0>       0.0700
@<TRIPOS>BOND
   1    1    2 1
   2    1   20 1
   3    1   21 1
   4    1   22 1
   5    2    8 ar
   6    2    3 ar
   7    3    4 ar
   8    3   23 1
   9    4    5 ar
  10    4   24 1
  11    5    6 ar
  12    5   25 1
  13    6    7 1
  14    6    8 ar
  15    7   26 1
  16    7   27 1
  17    7   28 1
  18    8    9 1
  19    9   10 am
  20    9   29 1
  21   10   11 2
  22   10   12 1
  23   12   13 1
  24   12   18 1
  25   12   14 1
  26   14   15 1
  27   14   30 1
  28   14   31 1
  29   15   16 1
  30   15   32 1
  31   15   33 1
  32   16   17 1
  33   16   34 1
  34   16   35 1
  35   17   18 1
  36   17   36 1
  37   17   37 1
  38   18   19 1
  39   19   38 1
  40   19   39 1
  41   19   40 1

@<TRIPOS>MOLECULE
ZINC000000154964
  41   42    0    0    0
SMALL
USER_CHARGES
NO_NAME
@<TRIPOS>ATOM
    1 C1       -2.0394     0.3501     0.9254 C.3    1 <0>      -0.1100
    2 C2       -0.9478    -0.5867     0.4760 C.ar   1 <0>      -0.0600
    3 C3       -1.0782    -1.2815    -0.7106 C.ar   1 <0>      -0.1200
    4 C4       -0.0772    -2.1416    -1.1234 C.ar   1 <0>      -0.0900
    5 C5        1.0572    -2.3088    -0.3505 C.ar   1 <0>      -0.1200
    6 C6        1.1938    -1.6167     0.8369 C.ar   1 <0>      -0.0800
    7 C7        2.4306    -1.7991     1.6783 C.3    1 <0>      -0.1100
    8 C8        0.1927    -0.7481     1.2516 C.ar   1 <0>       0.1000
    9 N9        0.3283    -0.0450     2.4538 N.am   1 <0>      -0.6500
   10 C10       0.4333     1.2986     2.4405 C.2    1 <0>       0.5000
   11 O11       0.3488     1.9032     1.3925 O.2    1 <0>      -0.5000
   12 C12       0.6558     2.0498     3.7279 C.3    1 <0>       0.0100
   13 H13       1.2344     1.4310     4.4137 H      1 <0>       0.1600
   14 C14      -0.6958     2.3858     4.3617 C.3    1 <0>      -0.1400
   15 C15      -0.4646     3.1486     5.6694 C.3    1 <0>      -0.1300
   16 C16       0.3673     4.4010     5.3781 C.3    1 <0>      -0.1500
   17 C17       1.6795     3.9902     4.7066 C.3    1 <0>      -0.0100
   18 N18       1.3909     3.2894     3.4496 N.4    1 <0>      -0.3700
   19 H19       0.8337     3.8840     2.8544 H      1 <0>       0.4300
   20 C20       2.6526     2.9642     2.7711 C.3    1 <0>      -0.0600
   21 H21      -1.9083     1.3187     0.4429 H      1 <0>       0.0800
   22 H22      -3.0095    -0.0642     0.6510 H      1 <0>       0.0700
   23 H23      -1.9897     0.4734     2.0072 H      1 <0>       0.0500
   24 H24      -1.9629    -1.1531    -1.3164 H      1 <0>       0.1300
   25 H25      -0.1818    -2.6843    -2.0513 H      1 <0>       0.1300
   26 H26       1.8370    -2.9817    -0.6754 H      1 <0>       0.1300
   27 H27       3.1845    -1.0712     1.3788 H      1 <0>       0.0700
   28 H28       2.1803    -1.6516     2.7289 H      1 <0>       0.0600
   29 H29       2.8215    -2.8066     1.5360 H      1 <0>       0.0800
   30 H30       0.3466    -0.5246     3.2967 H      1 <0>       0.4100
   31 H31      -1.2751     3.0049     3.6767 H      1 <0>       0.1000
   32 H32      -1.2397     1.4643     4.5692 H      1 <0>       0.1200
   33 H33      -1.4244     3.4397     6.0961 H      1 <0>       0.1000
   34 H34       0.0704     2.5113     6.3734 H      1 <0>       0.0900
   35 H35      -0.1900     5.0619     4.7142 H      1 <0>       0.0900
   36 H36       0.5832     4.9198     6.3121 H      1 <0>       0.1200
   37 H37       2.2743     4.8795     4.4980 H      1 <0>       0.1400
   38 H38       2.2360     3.3296     5.3714 H      1 <0>       0.1300
   39 H39       3.2089     2.2399     3.3661 H      1 <0>       0.1200
   40 H40       2.4388     2.5407     1.7898 H      1 <0>       0.1300
   41 H41       3.2464     3.8708     2.6541 H      1 <0>       0.1300
@<TRIPOS>BOND
   1    1    2 1
   2    1   21 1
   3    1   22 1
   4    1   23 1
   5    2    8 ar
   6    2    3 ar
   7    3    4 ar
   8    3   24 1
   9    4    5 ar
  10    4   25 1
  11    5    6 ar
  12    5   26 1
  13    6    7 1
  14    6    8 ar
  15    7   27 1
  16    7   28 1
  17    7   29 1
  18    8    9 1
  19    9   10 am
  20    9   30 1
  21   10   11 2
  22   10   12 1
  23   12   13 1
  24   12   18 1
  25   12   14 1
  26   14   15 1
  27   14   31 1
  28   14   32 1
  29   15   16 1
  30   15   33 1
  31   15   34 1
  32   16   17 1
  33   16   35 1
  34   16   36 1
  35   17   18 1
  36   17   37 1
  37   17   38 1
  38   18   19 1
  39   18   20 1
  40   20   39 1
  41   20   40 1
  42   20   41 1

@<TRIPOS>MOLECULE
ZINC000000154964
  41   42    0    0    0
SMALL
USER_CHARGES
NO_NAME
@<TRIPOS>ATOM
    1 C1       -1.9055    -2.1427     2.0248 C.3    1 <0>      -0.1200
    2 C2       -0.8914    -1.7524     0.9806 C.ar   1 <0>      -0.0800
    3 C3       -0.9508    -2.3081    -0.2824 C.ar   1 <0>      -0.1100
    4 C4       -0.0204    -1.9508    -1.2410 C.ar   1 <0>      -0.1000
    5 C5        0.9718    -1.0362    -0.9388 C.ar   1 <0>      -0.1100
    6 C6        1.0363    -0.4765     0.3222 C.ar   1 <0>      -0.0600
    7 C7        2.1176     0.5205     0.6505 C.3    1 <0>      -0.1100
    8 C8        0.1003    -0.8293     1.2855 C.ar   1 <0>       0.1100
    9 N9        0.1626    -0.2638     2.5639 N.am   1 <0>      -0.6400
   10 C10       0.1796     1.0762     2.7079 C.2    1 <0>       0.5100
   11 O11       0.2419     1.7905     1.7297 O.2    1 <0>      -0.5000
   12 C12       0.1211     1.6869     4.0844 C.3    1 <0>       0.0100
   13 H13       0.9985     1.3814     4.6544 H      1 <0>       0.1600
   14 C14      -1.1437     1.2085     4.8006 C.3    1 <0>      -0.1400
   15 C15      -2.3733     1.6403     3.9965 C.3    1 <0>      -0.1400
   16 C16      -2.3468     3.1612     3.8191 C.3    1 <0>      -0.1400
   17 C17      -1.0375     3.5672     3.1392 C.3    1 <0>      -0.0400
   18 N18       0.0982     3.1500     3.9693 N.4    1 <0>      -0.3600
   19 H19       0.0094     3.5573     4.8881 H      1 <0>       0.4300
   20 C20       1.3493     3.6084     3.3508 C.3    1 <0>      -0.0700
   21 H21      -2.7200    -1.4184     2.0290 H      1 <0>       0.0700
   22 H22      -2.3005    -3.1324     1.7956 H      1 <0>       0.0800
   23 H23      -1.4293    -2.1597     3.0052 H      1 <0>       0.0600
   24 H24      -1.7245    -3.0227    -0.5215 H      1 <0>       0.1300
   25 H25      -0.0685    -2.3873    -2.2277 H      1 <0>       0.1300
   26 H26       1.6971    -0.7595    -1.6896 H      1 <0>       0.1300
   27 H27       1.8048     1.5143     0.3304 H      1 <0>       0.0900
   28 H28       2.2941     0.5240     1.7261 H      1 <0>       0.0500
   29 H29       3.0360     0.2442     0.1325 H      1 <0>       0.0700
   30 H30       0.1936    -0.8361     3.3464 H      1 <0>       0.4200
   31 H31      -1.1261     0.1218     4.8835 H      1 <0>       0.1100
   32 H32      -1.1868     1.6495     5.7965 H      1 <0>       0.1100
   33 H33      -2.3568     1.1589     3.0187 H      1 <0>       0.0800
   34 H34      -3.2783     1.3514     4.5310 H      1 <0>       0.1000
   35 H35      -3.1893     3.4702     3.2003 H      1 <0>       0.1100
   36 H36      -2.4149     3.6427     4.7946 H      1 <0>       0.0900
   37 H37      -0.9705     3.0854     2.1637 H      1 <0>       0.1600
   38 H38      -1.0154     4.6494     3.0112 H      1 <0>       0.1300
   39 H39       1.3377     4.6953     3.2699 H      1 <0>       0.1300
   40 H40       2.1937     3.2990     3.9668 H      1 <0>       0.1200
   41 H41       1.4450     3.1710     2.3570 H      1 <0>       0.1400
@<TRIPOS>BOND
   1    1    2 1
   2    1   21 1
   3    1   22 1
   4    1   23 1
   5    2    8 ar
   6    2    3 ar
   7    3    4 ar
   8    3   24 1
   9    4    5 ar
  10    4   25 1
  11    5    6 ar
  12    5   26 1
  13    6    7 1
  14    6    8 ar
  15    7   27 1
  16    7   28 1
  17    7   29 1
  18    8    9 1
  19    9   10 am
  20    9   30 1
  21   10   11 2
  22   10   12 1
  23   12   13 1
  24   12   18 1
  25   12   14 1
  26   14   15 1
  27   14   31 1
  28   14   32 1
  29   15   16 1
  30   15   33 1
  31   15   34 1
  32   16   17 1
  33   16   35 1
  34   16   36 1
  35   17   18 1
  36   17   37 1
  37   17   38 1
  38   18   19 1
  39   18   20 1
  40   20   39 1
  41   20   40 1
  42   20   41 1
