@<TRIPOS>MOLECULE
ZINC000000006016
48    49    1     0     0
SMALL
USER_CHARGES
@<TRIPOS>ATOM
1      C1      1.4239    2.0431    0.1523 C.3      1 ZINC000000006016    0.0200
2      O2      1.1200    0.6505    0.0494 O.3      1 ZINC000000006016   -0.3100
3      C3      1.4815   -0.1387    1.0950 C.ar     1 ZINC000000006016    0.1500
4      C4      2.1104    0.4166    2.1999 C.ar     1 ZINC000000006016   -0.2100
5      C5      2.4764   -0.3877    3.2617 C.ar     1 ZINC000000006016   -0.0700
6      C6      2.2168   -1.7453    3.2237 C.ar     1 ZINC000000006016   -0.1700
7      C7      2.6175   -2.6205    4.3832 C.3      1 ZINC000000006016   -0.0400
8      H8      2.9856   -1.9975    5.1984 H        1 ZINC000000006016    0.1100
9      C9      1.4045   -3.4212    4.8609 C.3      1 ZINC000000006016   -0.0100
10     N10     0.3874   -2.5017    5.3880 N.4      1 ZINC000000006016   -0.3900
11     H11     0.1685   -1.8065    4.6902 H        1 ZINC000000006016    0.4300
12     C12    -0.8270   -3.2561    5.7255 C.3      1 ZINC000000006016   -0.0500
13     C13     0.9035   -1.8396    6.5936 C.3      1 ZINC000000006016   -0.0500
14     C14     3.7208   -3.5827    3.9385 C.3      1 ZINC000000006016    0.1500
15     O15     3.2009   -4.4832    2.9583 O.3      1 ZINC000000006016   -0.5600
16     C16     4.8796   -2.7861    3.3354 C.3      1 ZINC000000006016   -0.1400
17     C17     5.9829   -3.7483    2.8907 C.3      1 ZINC000000006016   -0.1300
18     C18     6.4841   -4.5428    4.0983 C.3      1 ZINC000000006016   -0.1300
19     C19     5.3253   -5.3394    4.7014 C.3      1 ZINC000000006016   -0.1200
20     C20     4.2220   -4.3772    5.1461 C.3      1 ZINC000000006016   -0.1500
21     C21     1.5897   -2.3011    2.1239 C.ar     1 ZINC000000006016   -0.0600
22     C22     1.2170   -1.5002    1.0618 C.ar     1 ZINC000000006016   -0.1500
23     H23     2.5009    2.1730    0.2587 H        1 ZINC000000006016    0.0600
24     H24     1.0831    2.5567   -0.7467 H        1 ZINC000000006016    0.1100
25     H25     0.9195    2.4616    1.0232 H        1 ZINC000000006016    0.0600
26     H26     2.3140    1.4768    2.2297 H        1 ZINC000000006016    0.1300
27     H27     2.9660    0.0441    4.1220 H        1 ZINC000000006016    0.1300
28     H28     0.9880   -3.9832    4.0249 H        1 ZINC000000006016    0.1400
29     H29     1.7115   -4.1121    5.6461 H        1 ZINC000000006016    0.1300
30     H30    -0.5905   -4.0070    6.4794 H        1 ZINC000000006016    0.1200
31     H31    -1.5817   -2.5738    6.1166 H        1 ZINC000000006016    0.1200
32     H32    -1.2100   -3.7473    4.8310 H        1 ZINC000000006016    0.1200
33     H33     1.7380   -1.1925    6.3237 H        1 ZINC000000006016    0.1200
34     H34     0.1124   -1.2424    7.0470 H        1 ZINC000000006016    0.1200
35     H35     1.2430   -2.5928    7.3046 H        1 ZINC000000006016    0.1200
36     H36     3.8263   -5.1666    2.6809 H        1 ZINC000000006016    0.3900
37     H37     4.5226   -2.2201    2.4751 H        1 ZINC000000006016    0.0800
38     H38     5.2762   -2.0992    4.0831 H        1 ZINC000000006016    0.0700
39     H39     5.5863   -4.4353    2.1430 H        1 ZINC000000006016    0.0700
40     H40     6.8085   -3.1809    2.4611 H        1 ZINC000000006016    0.0700
41     H41     7.2701   -5.2283    3.7815 H        1 ZINC000000006016    0.0700
42     H42     6.8807   -3.8559    4.8460 H        1 ZINC000000006016    0.0700
43     H43     4.9287   -6.0263    3.9537 H        1 ZINC000000006016    0.0700
44     H44     5.6824   -5.9054    5.5617 H        1 ZINC000000006016    0.0700
45     H45     4.6186   -3.6903    5.8938 H        1 ZINC000000006016    0.0800
46     H46     3.3965   -4.9446    5.5757 H        1 ZINC000000006016    0.0700
47     H47     1.3877   -3.3617    2.0968 H        1 ZINC000000006016    0.1400
48     H48     0.7271   -1.9348    0.2030 H        1 ZINC000000006016    0.1400
@<TRIPOS>BOND
1     1     2     1
2     1     23    1
3     1     24    1
4     1     25    1
5     2     3     1
6     3     22    ar
7     3     4     ar
8     4     5     ar
9     4     26    1
10    5     6     ar
11    5     27    1
12    6     7     1
13    6     21    ar
14    7     8     1
15    7     9     1
16    7     14    1
17    9     10    1
18    9     28    1
19    9     29    1
20    10    11    1
21    10    12    1
22    10    13    1
23    12    30    1
24    12    31    1
25    12    32    1
26    13    33    1
27    13    34    1
28    13    35    1
29    14    20    1
30    14    15    1
31    14    16    1
32    15    36    1
33    16    17    1
34    16    37    1
35    16    38    1
36    17    18    1
37    17    39    1
38    17    40    1
39    18    19    1
40    18    41    1
41    18    42    1
42    19    20    1
43    19    43    1
44    19    44    1
45    20    45    1
46    20    46    1
47    21    22    ar
48    21    47    1
49    22    48    1
@<TRIPOS>SUBSTRUCTURE
1   ZINC000000006016 1     RESIDUE    1   A     ZIN   1

@<TRIPOS>MOLECULE
ZINC000000006016
47    48    1     0     0
SMALL
USER_CHARGES
@<TRIPOS>ATOM
1      C1      0.6367    2.0941    0.3476 C.3      1 ZINC000000006016    0.0300
2      O2      0.4690    0.6815    0.2120 O.3      1 ZINC000000006016   -0.3200
3      C3      0.9801   -0.0982    1.2008 C.ar     1 ZINC000000006016    0.1200
4      C4      1.6246    0.4846    2.2822 C.ar     1 ZINC000000006016   -0.2100
5      C5      2.1428   -0.3101    3.2863 C.ar     1 ZINC000000006016   -0.0800
6      C6      2.0200   -1.6854    3.2139 C.ar     1 ZINC000000006016   -0.1100
7      C7      2.5867   -2.5500    4.3104 C.3      1 ZINC000000006016   -0.0300
8      H8      2.9444   -1.9180    5.1232 H        1 ZINC000000006016    0.0900
9      C9      1.4975   -3.4877    4.8349 C.3      1 ZINC000000006016    0.0600
10     N10     1.9901   -4.1930    6.0256 N.3      1 ZINC000000006016   -0.5300
11     C11     2.2115   -3.2583    7.1371 C.3      1 ZINC000000006016    0.0200
12     C12     1.0706   -5.2692    6.4181 C.3      1 ZINC000000006016    0.0200
13     C13     3.7493   -3.3773    3.7581 C.3      1 ZINC000000006016    0.1600
14     O14     3.2552   -4.3088    2.7937 O.3      1 ZINC000000006016   -0.5600
15     C15     4.7669   -2.4473    3.0943 C.3      1 ZINC000000006016   -0.1500
16     C16     5.9294   -3.2746    2.5420 C.3      1 ZINC000000006016   -0.1200
17     C17     6.6035   -4.0344    3.6863 C.3      1 ZINC000000006016   -0.1200
18     C18     5.5859   -4.9644    4.3501 C.3      1 ZINC000000006016   -0.1200
19     C19     4.4233   -4.1371    4.9023 C.3      1 ZINC000000006016   -0.1600
20     C20     1.3777   -2.2687    2.1374 C.ar     1 ZINC000000006016   -0.0600
21     C21     0.8531   -1.4781    1.1333 C.ar     1 ZINC000000006016   -0.1600
22     H22     1.6998    2.3316    0.3879 H        1 ZINC000000006016    0.0500
23     H23     0.1841    2.5974   -0.5068 H        1 ZINC000000006016    0.1000
24     H24     0.1541    2.4309    1.2651 H        1 ZINC000000006016    0.0500
25     H25     1.7214    1.5588    2.3389 H        1 ZINC000000006016    0.1300
26     H26     2.6447    0.1431    4.1284 H        1 ZINC000000006016    0.1200
27     H27     0.6131   -2.9068    5.0966 H        1 ZINC000000006016    0.0300
28     H28     1.2403   -4.2134    4.0633 H        1 ZINC000000006016    0.0900
29     H29     1.2735   -2.7628    7.3875 H        1 ZINC000000006016    0.0300
30     H30     2.5760   -3.8065    8.0058 H        1 ZINC000000006016    0.0700
31     H31     2.9494   -2.5119    6.8426 H        1 ZINC000000006016    0.0700
32     H32     0.9790   -5.9848    5.6011 H        1 ZINC000000006016    0.0700
33     H33     1.4593   -5.7749    7.3021 H        1 ZINC000000006016    0.0700
34     H34     0.0912   -4.8466    6.6425 H        1 ZINC000000006016    0.0300
35     H35     3.9392   -4.8682    2.4008 H        1 ZINC000000006016    0.3700
36     H36     4.2867   -1.9060    2.2791 H        1 ZINC000000006016    0.0700
37     H37     5.1437   -1.7368    3.8300 H        1 ZINC000000006016    0.0600
38     H38     5.5526   -3.9851    1.8064 H        1 ZINC000000006016    0.0600
39     H39     6.6544   -2.6121    2.0691 H        1 ZINC000000006016    0.0600
40     H40     7.4317   -4.6238    3.2928 H        1 ZINC000000006016    0.0600
41     H41     6.9804   -3.3239    4.4219 H        1 ZINC000000006016    0.0600
42     H42     5.2090   -5.6749    3.6144 H        1 ZINC000000006016    0.0600
43     H43     6.0661   -5.5057    5.1652 H        1 ZINC000000006016    0.0600
44     H44     4.8002   -3.4266    5.6380 H        1 ZINC000000006016    0.0600
45     H45     3.6984   -4.7996    5.3753 H        1 ZINC000000006016    0.1200
46     H46     1.2827   -3.3432    2.0832 H        1 ZINC000000006016    0.1400
47     H47     0.3515   -1.9342    0.2926 H        1 ZINC000000006016    0.1300
@<TRIPOS>BOND
1     1     2     1
2     1     22    1
3     1     23    1
4     1     24    1
5     2     3     1
6     3     21    ar
7     3     4     ar
8     4     5     ar
9     4     25    1
10    5     6     ar
11    5     26    1
12    6     7     1
13    6     20    ar
14    7     8     1
15    7     9     1
16    7     13    1
17    9     10    1
18    9     27    1
19    9     28    1
20    10    11    1
21    10    12    1
22    11    29    1
23    11    30    1
24    11    31    1
25    12    32    1
26    12    33    1
27    12    34    1
28    13    19    1
29    13    14    1
30    13    15    1
31    14    35    1
32    15    16    1
33    15    36    1
34    15    37    1
35    16    17    1
36    16    38    1
37    16    39    1
38    17    18    1
39    17    40    1
40    17    41    1
41    18    19    1
42    18    42    1
43    18    43    1
44    19    44    1
45    19    45    1
46    20    21    ar
47    20    46    1
48    21    47    1
@<TRIPOS>SUBSTRUCTURE
1   ZINC000000006016 1     RESIDUE    1   A     ZIN   1
