@<TRIPOS>MOLECULE
ZINC000000391812
27    28    1     0     0
SMALL
USER_CHARGES
@<TRIPOS>ATOM
1      C1     -0.0178    1.4648    0.0101 C.3      1 ZINC000000391812   -0.0500
2      N2      0.0021   -0.0041    0.0020 N.4      1 ZINC000000391812   -0.3900
3      H3      0.4621   -0.3336   -0.8334 H        1 ZINC000000391812    0.4200
4      C4     -1.3825   -0.5207    0.0443 C.3      1 ZINC000000391812   -0.0100
5      C5     -1.6527   -0.8060    1.5427 C.3      1 ZINC000000391812   -0.1400
6      C6     -0.2737   -1.3380    2.0140 C.3      1 ZINC000000391812   -0.1300
7      C7      0.7206   -0.4971    1.1914 C.3      1 ZINC000000391812    0.0800
8      H8      1.0750    0.3448    1.7861 H        1 ZINC000000391812    0.1500
9      C9      1.8869   -1.3520    0.7673 C.ar     1 ZINC000000391812   -0.2000
10     C10     3.0938   -1.2792    1.4455 C.ar     1 ZINC000000391812   -0.0400
11     C11     4.1394   -2.0848    1.0203 C.ar     1 ZINC000000391812   -0.1600
12     C12     3.9450   -2.9274   -0.0575 C.ar     1 ZINC000000391812    0.1300
13     N13     2.7826   -2.9704   -0.6791 N.ar     1 ZINC000000391812   -0.4700
14     C14     1.7651   -2.2229   -0.2992 C.ar     1 ZINC000000391812    0.1000
15     H15     1.0047    1.8421    0.0024 H        1 ZINC000000391812    0.1200
16     H16    -0.5450    1.8259   -0.8730 H        1 ZINC000000391812    0.1300
17     H17    -0.5280    1.8163    0.9069 H        1 ZINC000000391812    0.1200
18     H18    -2.0790    0.2292   -0.3308 H        1 ZINC000000391812    0.1400
19     H19    -1.4629   -1.4390   -0.5374 H        1 ZINC000000391812    0.1300
20     H20    -1.9202    0.1084    2.0722 H        1 ZINC000000391812    0.1000
21     H21    -2.4258   -1.5651    1.6624 H        1 ZINC000000391812    0.1200
22     H22    -0.1368   -1.1617    3.0809 H        1 ZINC000000391812    0.1200
23     H23    -0.1692   -2.3976    1.7809 H        1 ZINC000000391812    0.1000
24     H24     3.2169   -0.6107    2.2847 H        1 ZINC000000391812    0.1500
25     H25     5.0937   -2.0538    1.5250 H        1 ZINC000000391812    0.1500
26     H26     4.7544   -3.5577   -0.3950 H        1 ZINC000000391812    0.1700
27     H27     0.8283   -2.2854   -0.8329 H        1 ZINC000000391812    0.1500
@<TRIPOS>BOND
1     1     2     1
2     1     15    1
3     1     16    1
4     1     17    1
5     2     3     1
6     2     7     1
7     2     4     1
8     4     5     1
9     4     18    1
10    4     19    1
11    5     6     1
12    5     20    1
13    5     21    1
14    6     7     1
15    6     22    1
16    6     23    1
17    7     8     1
18    7     9     1
19    9     14    ar
20    9     10    ar
21    10    11    ar
22    10    24    1
23    11    12    ar
24    11    25    1
25    12    13    ar
26    12    26    1
27    13    14    ar
28    14    27    1
@<TRIPOS>SUBSTRUCTURE
1   ZINC000000391812 1     RESIDUE    1   A     ZIN   1

@<TRIPOS>MOLECULE
ZINC000000391812
27    28    1     0     0
SMALL
USER_CHARGES
@<TRIPOS>ATOM
1      C1      0.2354    1.5164   -0.0551 C.3      1 ZINC000000391812   -0.0500
2      N2      0.1357    0.0508   -0.0588 N.4      1 ZINC000000391812   -0.3900
3      H3     -0.8350   -0.2242   -0.0554 H        1 ZINC000000391812    0.4300
4      C4      0.8001   -0.4887   -1.2594 C.3      1 ZINC000000391812   -0.0100
5      C5      1.9534   -1.3930   -0.7763 C.3      1 ZINC000000391812   -0.1400
6      C6      2.2341   -0.8665    0.6557 C.3      1 ZINC000000391812   -0.1400
7      C7      0.8123   -0.4969    1.1362 C.3      1 ZINC000000391812    0.0800
8      H8      0.2895   -1.3845    1.4926 H        1 ZINC000000391812    0.1500
9      C9      0.8801    0.5432    2.2247 C.ar     1 ZINC000000391812   -0.2000
10     C10     1.7660    1.6050    2.1266 C.ar     1 ZINC000000391812   -0.0600
11     C11     1.7935    2.5384    3.1518 C.ar     1 ZINC000000391812   -0.1700
12     C12     0.9430    2.3803    4.2294 C.ar     1 ZINC000000391812    0.1400
13     N13     0.1129    1.3573    4.2892 N.ar     1 ZINC000000391812   -0.4700
14     C14     0.0558    0.4537    3.3306 C.ar     1 ZINC000000391812    0.1400
15     H15     1.2846    1.8093   -0.0940 H        1 ZINC000000391812    0.1200
16     H16    -0.2864    1.9183   -0.9235 H        1 ZINC000000391812    0.1200
17     H17    -0.2179    1.9091    0.8551 H        1 ZINC000000391812    0.1200
18     H18     0.0905   -1.0735   -1.8447 H        1 ZINC000000391812    0.1400
19     H19     1.1970    0.3282   -1.8622 H        1 ZINC000000391812    0.1300
20     H20     1.6393   -2.4364   -0.7486 H        1 ZINC000000391812    0.1000
21     H21     2.8311   -1.2704   -1.4110 H        1 ZINC000000391812    0.1100
22     H22     2.6676   -1.6471    1.2808 H        1 ZINC000000391812    0.1200
23     H23     2.8778    0.0128    0.6292 H        1 ZINC000000391812    0.1000
24     H24     2.4195    1.7027    1.2723 H        1 ZINC000000391812    0.1400
25     H25     2.4713    3.3781    3.1087 H        1 ZINC000000391812    0.1500
26     H26     0.9585    3.1027    5.0320 H        1 ZINC000000391812    0.1700
27     H27    -0.6370   -0.3705    3.4146 H        1 ZINC000000391812    0.1600
@<TRIPOS>BOND
1     1     2     1
2     1     15    1
3     1     16    1
4     1     17    1
5     2     3     1
6     2     7     1
7     2     4     1
8     4     5     1
9     4     18    1
10    4     19    1
11    5     6     1
12    5     20    1
13    5     21    1
14    6     7     1
15    6     22    1
16    6     23    1
17    7     8     1
18    7     9     1
19    9     14    ar
20    9     10    ar
21    10    11    ar
22    10    24    1
23    11    12    ar
24    11    25    1
25    12    13    ar
26    12    26    1
27    13    14    ar
28    14    27    1
@<TRIPOS>SUBSTRUCTURE
1   ZINC000000391812 1     RESIDUE    1   A     ZIN   1

@<TRIPOS>MOLECULE
ZINC000000391812
26    27    1     0     0
SMALL
USER_CHARGES
@<TRIPOS>ATOM
1      C1     -0.0178    1.4648    0.0101 C.3      1 ZINC000000391812    0.0100
2      N2      0.0021   -0.0041    0.0020 N.3      1 ZINC000000391812   -0.5100
3      C3     -1.3720   -0.5558    0.1230 C.3      1 ZINC000000391812    0.0300
4      C4     -1.1684   -1.9979    0.6351 C.3      1 ZINC000000391812   -0.1300
5      C5      0.2040   -1.9832    1.3394 C.3      1 ZINC000000391812   -0.1200
6      C6      0.7141   -0.5334    1.1936 C.3      1 ZINC000000391812    0.1000
7      H7      0.4599    0.0499    2.0786 H        1 ZINC000000391812    0.0600
8      C8      2.2040   -0.5208    0.9672 C.ar     1 ZINC000000391812   -0.1300
9      C9      3.0711   -0.2583    2.0165 C.ar     1 ZINC000000391812   -0.0700
10     C10     4.4343   -0.2575    1.7617 C.ar     1 ZINC000000391812   -0.1700
11     C11     4.8798   -0.5166    0.4796 C.ar     1 ZINC000000391812    0.0900
12     N12     4.0256   -0.7624   -0.4947 N.ar     1 ZINC000000391812   -0.4900
13     C13     2.7234   -0.7765   -0.2880 C.ar     1 ZINC000000391812    0.1300
14     H14     1.0047    1.8421    0.0024 H        1 ZINC000000391812    0.0700
15     H15    -0.5450    1.8259   -0.8730 H        1 ZINC000000391812    0.0700
16     H16    -0.5280    1.8163    0.9069 H        1 ZINC000000391812    0.0300
17     H17    -1.9526    0.0240    0.8404 H        1 ZINC000000391812    0.0500
18     H18    -1.8654   -0.5637   -0.8489 H        1 ZINC000000391812    0.0900
19     H19    -1.9542   -2.2629    1.3425 H        1 ZINC000000391812    0.0700
20     H20    -1.1578   -2.6983   -0.2001 H        1 ZINC000000391812    0.0800
21     H21     0.0918   -2.2409    2.3925 H        1 ZINC000000391812    0.0700
22     H22     0.8881   -2.6763    0.8500 H        1 ZINC000000391812    0.0800
23     H23     2.6941   -0.0587    3.0086 H        1 ZINC000000391812    0.1300
24     H24     5.1388   -0.0566    2.5553 H        1 ZINC000000391812    0.1300
25     H25     5.9398   -0.5175    0.2729 H        1 ZINC000000391812    0.1500
26     H26     2.0545   -0.9817   -1.1107 H        1 ZINC000000391812    0.1600
@<TRIPOS>BOND
1     1     2     1
2     1     14    1
3     1     15    1
4     1     16    1
5     2     6     1
6     2     3     1
7     3     4     1
8     3     17    1
9     3     18    1
10    4     5     1
11    4     19    1
12    4     20    1
13    5     6     1
14    5     21    1
15    5     22    1
16    6     7     1
17    6     8     1
18    8     13    ar
19    8     9     ar
20    9     10    ar
21    9     23    1
22    10    11    ar
23    10    24    1
24    11    12    ar
25    11    25    1
26    12    13    ar
27    13    26    1
@<TRIPOS>SUBSTRUCTURE
1   ZINC000000391812 1     RESIDUE    1   A     ZIN   1
