@<TRIPOS>MOLECULE
ZINC000004097426
  32   32    0    0    0
SMALL
USER_CHARGES
NO_NAME
@<TRIPOS>ATOM
    1 O1        0.0927     1.2751     0.2989 O.3    1 <0>      -0.5700
    2 C2       -0.0274    -0.1385     0.1270 C.3    1 <0>       0.0500
    3 C3       -1.5067    -0.5292     0.1340 C.3    1 <0>      -0.0100
    4 N4       -2.1473    -0.0433    -1.0954 N.4    1 <0>      -0.3700
    5 H5       -1.6254    -0.3669    -1.8960 H      1 <0>       0.4300
    6 C6       -2.1681     1.4243    -1.0874 C.3    1 <0>      -0.0200
    7 C7       -2.7609     1.9370    -2.4016 C.3    1 <0>       0.0600
    8 H8       -2.1524     1.5880    -3.2360 H      1 <0>       0.0900
    9 O9       -2.7811     3.3658    -2.3907 O.3    1 <0>      -0.5400
   10 C10      -4.1891     1.4056    -2.5528 C.3    1 <0>       0.0200
   11 H11      -4.8104     1.7958    -1.7467 H      1 <0>       0.0900
   12 O12      -4.7229     1.8210    -3.8115 O.3    1 <0>      -0.5500
   13 C13      -4.1639    -0.1241    -2.4851 C.3    1 <0>       0.1100
   14 H14      -3.5846    -0.5159    -3.3212 H      1 <0>       0.1000
   15 O15      -5.4998    -0.6269    -2.5531 O.3    1 <0>      -0.5400
   16 C16      -3.5197    -0.5590    -1.1669 C.3    1 <0>       0.0300
   17 H17      -4.1006    -0.1665    -0.3323 H      1 <0>       0.1600
   18 C18      -3.4911    -2.0870    -1.0936 C.3    1 <0>       0.0600
   19 O19      -2.7983    -2.6055    -2.2308 O.3    1 <0>      -0.5800
   20 H20       1.0054     1.5945     0.3043 H      1 <0>       0.4100
   21 H21       0.4204    -0.4282    -0.8236 H      1 <0>       0.0700
   22 H22       0.4870    -0.6485     0.9415 H      1 <0>       0.1000
   23 H23      -1.5956    -1.6144     0.1856 H      1 <0>       0.1500
   24 H24      -1.9962    -0.0830     0.9996 H      1 <0>       0.1400
   25 H25      -2.7771     1.7741    -0.2537 H      1 <0>       0.1400
   26 H26      -1.1513     1.8011    -0.9765 H      1 <0>       0.1700
   27 H27      -3.1453     3.7602    -3.1950 H      1 <0>       0.4000
   28 H28      -4.7627     2.7806    -3.9244 H      1 <0>       0.4000
   29 H29      -5.9703    -0.3851    -3.3625 H      1 <0>       0.4100
   30 H30      -2.9786    -2.3976    -0.1832 H      1 <0>       0.0800
   31 H31      -4.5118    -2.4695    -1.0845 H      1 <0>       0.1100
   32 H32      -2.7415    -3.5707    -2.2504 H      1 <0>       0.4100
@<TRIPOS>BOND
   1    1    2 1
   2    1   20 1
   3    2    3 1
   4    2   21 1
   5    2   22 1
   6    3    4 1
   7    3   23 1
   8    3   24 1
   9    4    5 1
  10    4   16 1
  11    4    6 1
  12    6    7 1
  13    6   25 1
  14    6   26 1
  15    7    8 1
  16    7    9 1
  17    7   10 1
  18    9   27 1
  19   10   11 1
  20   10   12 1
  21   10   13 1
  22   12   28 1
  23   13   14 1
  24   13   15 1
  25   13   16 1
  26   15   29 1
  27   16   17 1
  28   16   18 1
  29   18   19 1
  30   18   30 1
  31   18   31 1
  32   19   32 1

@<TRIPOS>MOLECULE
ZINC000004097426
  32   32    0    0    0
SMALL
USER_CHARGES
NO_NAME
@<TRIPOS>ATOM
    1 O1       -0.3587     1.9559    -0.2474 O.3    1 <0>      -0.5800
    2 C2       -0.0785     0.5549    -0.2231 C.3    1 <0>       0.0500
    3 C3       -1.3910    -0.2263    -0.1351 C.3    1 <0>      -0.0300
    4 N4       -2.1739    -0.0078    -1.3587 N.4    1 <0>      -0.3600
    5 H5       -2.3010     0.9827    -1.5031 H      1 <0>       0.4500
    6 C6       -1.4574    -0.5799    -2.5049 C.3    1 <0>      -0.0100
    7 C7       -1.1922    -2.0661    -2.2554 C.3    1 <0>       0.0600
    8 H8       -0.5875    -2.1820    -1.3559 H      1 <0>       0.0900
    9 O9       -0.4957    -2.6208    -3.3732 O.3    1 <0>      -0.5400
   10 C10      -2.5272    -2.7934    -2.0714 C.3    1 <0>       0.0300
   11 H11      -3.1111    -2.7213    -2.9890 H      1 <0>       0.1000
   12 O12      -2.2844    -4.1682    -1.7664 O.3    1 <0>      -0.5500
   13 C13      -3.2987    -2.1404    -0.9209 C.3    1 <0>       0.1100
   14 H14      -2.7378    -2.2578     0.0063 H      1 <0>       0.0900
   15 O15      -4.5767    -2.7656    -0.7879 O.3    1 <0>      -0.5400
   16 C16      -3.4852    -0.6529    -1.2205 C.3    1 <0>       0.0300
   17 H17      -4.0462    -0.5371    -2.1479 H      1 <0>       0.1600
   18 C18      -4.2552     0.0051    -0.0738 C.3    1 <0>       0.0600
   19 O19      -4.4659     1.3866    -0.3724 O.3    1 <0>      -0.5800
   20 H20       0.4292     2.5138    -0.3027 H      1 <0>       0.4100
   21 H21       0.4509     0.2744    -1.1337 H      1 <0>       0.0700
   22 H22       0.5410     0.3233     0.6433 H      1 <0>       0.1000
   23 H23      -1.1747    -1.2892    -0.0271 H      1 <0>       0.1400
   24 H24      -1.9615     0.1178     0.7276 H      1 <0>       0.1500
   25 H25      -2.0618    -0.4651    -3.4047 H      1 <0>       0.1500
   26 H26      -0.5089    -0.0591    -2.6366 H      1 <0>       0.1500
   27 H27      -0.2941    -3.5622    -3.2832 H      1 <0>       0.4000
   28 H28      -1.7939    -4.6424    -2.4516 H      1 <0>       0.4000
   29 H29      -4.5334    -3.7132    -0.6003 H      1 <0>       0.4100
   30 H30      -5.2179    -0.4910     0.0491 H      1 <0>       0.1100
   31 H31      -3.6803    -0.0839     0.8480 H      1 <0>       0.0700
   32 H32      -4.9494     1.8678     0.3130 H      1 <0>       0.4100
@<TRIPOS>BOND
   1    1    2 1
   2    1   20 1
   3    2    3 1
   4    2   21 1
   5    2   22 1
   6    3    4 1
   7    3   23 1
   8    3   24 1
   9    4    5 1
  10    4   16 1
  11    4    6 1
  12    6    7 1
  13    6   25 1
  14    6   26 1
  15    7    8 1
  16    7    9 1
  17    7   10 1
  18    9   27 1
  19   10   11 1
  20   10   12 1
  21   10   13 1
  22   12   28 1
  23   13   14 1
  24   13   15 1
  25   13   16 1
  26   15   29 1
  27   16   17 1
  28   16   18 1
  29   18   19 1
  30   18   30 1
  31   18   31 1
  32   19   32 1

@<TRIPOS>MOLECULE
ZINC000004097426
  31   31    0    0    0
SMALL
USER_CHARGES
NO_NAME
@<TRIPOS>ATOM
    1 O1       -0.0359     1.4206     0.2750 O.3    1 <0>      -0.5700
    2 C2       -0.0054     0.0158     0.0146 C.3    1 <0>       0.0600
    3 C3       -1.4333    -0.5336     0.0129 C.3    1 <0>       0.0700
    4 N4       -2.1438    -0.0470    -1.1772 N.3    1 <0>      -0.5300
    5 C5       -1.8071     1.3552    -1.4544 C.3    1 <0>       0.0200
    6 C6       -2.4478     1.7832    -2.7767 C.3    1 <0>       0.0700
    7 H7       -2.0621     1.1627    -3.5856 H      1 <0>       0.0700
    8 O8       -2.1361     3.1534    -3.0363 O.3    1 <0>      -0.5700
    9 C9       -3.9664     1.6127    -2.6812 C.3    1 <0>       0.0800
   10 H10      -4.3574     2.2624    -1.8982 H      1 <0>       0.0700
   11 O11      -4.5654     1.9584    -3.9318 O.3    1 <0>      -0.5600
   12 C12      -4.2882     0.1542    -2.3441 C.3    1 <0>       0.1300
   13 H13      -3.9315    -0.4920    -3.1462 H      1 <0>       0.0800
   14 O14      -5.7013    -0.0014    -2.1989 O.3    1 <0>      -0.5600
   15 C15      -3.5942    -0.2266    -1.0343 C.3    1 <0>       0.0900
   16 H16      -3.9616     0.4107    -0.2300 H      1 <0>       0.0600
   17 C17      -3.8964    -1.6896    -0.7039 C.3    1 <0>       0.0800
   18 O18      -3.3465    -2.0125     0.5749 O.3    1 <0>      -0.5700
   19 H19       0.8369     1.8367     0.2909 H      1 <0>       0.3800
   20 H20       0.4541    -0.1636    -0.9574 H      1 <0>       0.0500
   21 H21       0.5756    -0.4848     0.7892 H      1 <0>       0.0600
   22 H22      -1.4033    -1.6231    -0.0020 H      1 <0>       0.1100
   23 H23      -1.9534    -0.1967     0.9096 H      1 <0>       0.0500
   24 H24      -2.1829     1.9851    -0.6482 H      1 <0>       0.0500
   25 H25      -0.7246     1.4619    -1.5240 H      1 <0>       0.1000
   26 H26      -1.1889     3.3349    -3.1066 H      1 <0>       0.3900
   27 H27      -4.3979     2.8694    -4.2096 H      1 <0>       0.3900
   28 H28      -6.2055     0.2257    -2.9922 H      1 <0>       0.3900
   29 H29      -4.9755    -1.8423    -0.6845 H      1 <0>       0.0600
   30 H30      -3.4521    -2.3329    -1.4634 H      1 <0>       0.0600
   31 H31      -3.5005    -2.9268     0.8498 H      1 <0>       0.3800
@<TRIPOS>BOND
   1    1    2 1
   2    1   19 1
   3    2    3 1
   4    2   20 1
   5    2   21 1
   6    3    4 1
   7    3   22 1
   8    3   23 1
   9    4   15 1
  10    4    5 1
  11    5    6 1
  12    5   24 1
  13    5   25 1
  14    6    7 1
  15    6    8 1
  16    6    9 1
  17    8   26 1
  18    9   10 1
  19    9   11 1
  20    9   12 1
  21   11   27 1
  22   12   13 1
  23   12   14 1
  24   12   15 1
  25   14   28 1
  26   15   16 1
  27   15   17 1
  28   17   18 1
  29   17   29 1
  30   17   30 1
  31   18   31 1
