@<TRIPOS>MOLECULE
ZINC000019594599
32    34    1     0     0
SMALL
USER_CHARGES
@<TRIPOS>ATOM
1      Cl1     2.3490    4.5073    1.0785 Cl       1 ZINC000019594599   -0.0600
2      C2      0.9713    3.6398    0.4759 C.ar     1 ZINC000019594599   -0.0300
3      C3     -0.2772    4.2355    0.4794 C.ar     1 ZINC000019594599   -0.1000
4      C4     -1.3738    3.5442   -0.0005 C.ar     1 ZINC000019594599   -0.0700
5      C5     -1.2231    2.2581   -0.4839 C.ar     1 ZINC000019594599   -0.1100
6      C6      0.0246    1.6622   -0.4877 C.ar     1 ZINC000019594599   -0.0800
7      C7      1.1226    2.3544   -0.0135 C.ar     1 ZINC000019594599   -0.1500
8      C8      2.4825    1.7050   -0.0182 C.3      1 ZINC000019594599    0.0400
9      N9      2.8148    1.2547    1.3400 N.4      1 ZINC000019594599   -0.3900
10     H10     2.7254    2.0292    1.9806 H        1 ZINC000019594599    0.4200
11     C11     4.1977    0.7592    1.3645 C.3      1 ZINC000019594599    0.0000
12     C12     4.6509    0.6036    2.8216 C.3      1 ZINC000019594599   -0.0700
13     C13     3.5810   -0.1718    3.5609 C.2      1 ZINC000019594599   -0.2200
14     C14     2.3353   -0.3694    3.0843 C.2      1 ZINC000019594599   -0.1400
15     C15     1.5255   -1.1139    3.9339 C.2      1 ZINC000019594599   -0.1300
16     C16     2.0928   -1.5092    5.0706 C.2      1 ZINC000019594599   -0.2000
17     S17     3.7542   -0.9378    5.1308 S.3      1 ZINC000019594599    0.2000
18     C18     1.8916    0.1844    1.7379 C.3      1 ZINC000019594599    0.0700
19     H19    -0.3951    5.2403    0.8574 H        1 ZINC000019594599    0.1500
20     H20    -2.3487    4.0090    0.0025 H        1 ZINC000019594599    0.1500
21     H21    -2.0802    1.7183   -0.8585 H        1 ZINC000019594599    0.1500
22     H22     0.1417    0.6573   -0.8656 H        1 ZINC000019594599    0.1400
23     H23     2.4740    0.8489   -0.6929 H        1 ZINC000019594599    0.1500
24     H24     3.2280    2.4254   -0.3548 H        1 ZINC000019594599    0.1400
25     H25     4.2474   -0.2069    0.8623 H        1 ZINC000019594599    0.1400
26     H26     4.8483    1.4697    0.8545 H        1 ZINC000019594599    0.1400
27     H27     5.5938    0.0579    2.8584 H        1 ZINC000019594599    0.1300
28     H28     4.7749    1.5864    3.2764 H        1 ZINC000019594599    0.1100
29     H29     0.5021   -1.3554    3.6876 H        1 ZINC000019594599    0.1500
30     H30     1.6066   -2.0917    5.8392 H        1 ZINC000019594599    0.1800
31     H31     0.8832    0.5892    1.8236 H        1 ZINC000019594599    0.1400
32     H32     1.9064   -0.6109    0.9927 H        1 ZINC000019594599    0.1400
@<TRIPOS>BOND
1     1     2     1
2     2     7     ar
3     2     3     ar
4     3     4     ar
5     3     19    1
6     4     5     ar
7     4     20    1
8     5     6     ar
9     5     21    1
10    6     7     ar
11    6     22    1
12    7     8     1
13    8     9     1
14    8     23    1
15    8     24    1
16    9     10    1
17    9     18    1
18    9     11    1
19    11    12    1
20    11    25    1
21    11    26    1
22    12    13    1
23    12    27    1
24    12    28    1
25    13    17    1
26    13    14    2
27    14    15    1
28    14    18    1
29    15    16    2
30    15    29    1
31    16    17    1
32    16    30    1
33    18    31    1
34    18    32    1
@<TRIPOS>SUBSTRUCTURE
1   ZINC000019594599 1     RESIDUE    1   A     ZIN   1

@<TRIPOS>MOLECULE
ZINC000019594599
32    34    1     0     0
SMALL
USER_CHARGES
@<TRIPOS>ATOM
1      Cl1     0.0021   -0.0041    0.0020 Cl       1 ZINC000019594599   -0.0600
2      C2     -0.0215    1.7317    0.0116 C.ar     1 ZINC000019594599   -0.0300
3      C3     -1.2284    2.4073    0.0325 C.ar     1 ZINC000019594599   -0.1000
4      C4     -1.2466    3.7895    0.0400 C.ar     1 ZINC000019594599   -0.0700
5      C5     -0.0590    4.4966    0.0267 C.ar     1 ZINC000019594599   -0.1100
6      C6      1.1477    3.8219    0.0058 C.ar     1 ZINC000019594599   -0.0800
7      C7      1.1672    2.4401    0.0040 C.ar     1 ZINC000019594599   -0.1500
8      C8      2.4825    1.7050   -0.0182 C.3      1 ZINC000019594599    0.0400
9      N9      2.7569    1.1518    1.3147 N.4      1 ZINC000019594599   -0.3900
10     H10     1.9793    0.5783    1.6056 H        1 ZINC000019594599    0.4200
11     C11     3.9743    0.3311    1.2606 C.3      1 ZINC000019594599    0.0000
12     C12     4.0763   -0.5032    2.5438 C.3      1 ZINC000019594599   -0.0700
13     C13     3.8708    0.4271    3.7206 C.2      1 ZINC000019594599   -0.2200
14     C14     3.3597    1.6701    3.6122 C.2      1 ZINC000019594599   -0.1400
15     C15     3.2669    2.3418    4.8254 C.2      1 ZINC000019594599   -0.1300
16     C16     3.6871    1.6662    5.8917 C.2      1 ZINC000019594599   -0.2000
17     S17     4.2483    0.0749    5.3983 S.3      1 ZINC000019594599    0.2000
18     C18     2.9356    2.2515    2.2711 C.3      1 ZINC000019594599    0.0700
19     H19    -2.1564    1.8549    0.0425 H        1 ZINC000019594599    0.1500
20     H20    -2.1888    4.3170    0.0560 H        1 ZINC000019594599    0.1500
21     H21    -0.0736    5.5764    0.0322 H        1 ZINC000019594599    0.1500
22     H22     2.0753    4.3749   -0.0046 H        1 ZINC000019594599    0.1400
23     H23     2.4333    0.8941   -0.7450 H        1 ZINC000019594599    0.1400
24     H24     3.2795    2.3945   -0.2965 H        1 ZINC000019594599    0.1500
25     H25     3.9281   -0.3326    0.3972 H        1 ZINC000019594599    0.1400
26     H26     4.8469    0.9790    1.1769 H        1 ZINC000019594599    0.1400
27     H27     3.3063   -1.2746    2.5444 H        1 ZINC000019594599    0.1100
28     H28     5.0618   -0.9647    2.6062 H        1 ZINC000019594599    0.1300
29     H29     2.8785    3.3470    4.8978 H        1 ZINC000019594599    0.1500
30     H30     3.6842    2.0386    6.9054 H        1 ZINC000019594599    0.1800
31     H31     3.7048    2.9336    1.9089 H        1 ZINC000019594599    0.1400
32     H32     1.9937    2.7877    2.3866 H        1 ZINC000019594599    0.1400
@<TRIPOS>BOND
1     1     2     1
2     2     7     ar
3     2     3     ar
4     3     4     ar
5     3     19    1
6     4     5     ar
7     4     20    1
8     5     6     ar
9     5     21    1
10    6     7     ar
11    6     22    1
12    7     8     1
13    8     9     1
14    8     23    1
15    8     24    1
16    9     10    1
17    9     18    1
18    9     11    1
19    11    12    1
20    11    25    1
21    11    26    1
22    12    13    1
23    12    27    1
24    12    28    1
25    13    17    1
26    13    14    2
27    14    15    1
28    14    18    1
29    15    16    2
30    15    29    1
31    16    17    1
32    16    30    1
33    18    31    1
34    18    32    1
@<TRIPOS>SUBSTRUCTURE
1   ZINC000019594599 1     RESIDUE    1   A     ZIN   1

@<TRIPOS>MOLECULE
ZINC000019594599
32    34    1     0     0
SMALL
USER_CHARGES
@<TRIPOS>ATOM
1      Cl1     0.0021   -0.0041    0.0020 Cl       1 ZINC000019594599   -0.0600
2      C2     -0.0215    1.7317    0.0116 C.ar     1 ZINC000019594599   -0.0300
3      C3     -1.2284    2.4073    0.0325 C.ar     1 ZINC000019594599   -0.1000
4      C4     -1.2466    3.7895    0.0400 C.ar     1 ZINC000019594599   -0.0700
5      C5     -0.0590    4.4966    0.0267 C.ar     1 ZINC000019594599   -0.1100
6      C6      1.1477    3.8219    0.0058 C.ar     1 ZINC000019594599   -0.0800
7      C7      1.1672    2.4401    0.0040 C.ar     1 ZINC000019594599   -0.1500
8      C8      2.4825    1.7050   -0.0182 C.3      1 ZINC000019594599    0.0400
9      N9      2.7569    1.1518    1.3147 N.4      1 ZINC000019594599   -0.3900
10     H10     1.9793    0.5783    1.6056 H        1 ZINC000019594599    0.4200
11     C11     3.9743    0.3311    1.2606 C.3      1 ZINC000019594599    0.0000
12     C12     4.0763   -0.5032    2.5438 C.3      1 ZINC000019594599   -0.0700
13     C13     3.8708    0.4271    3.7206 C.2      1 ZINC000019594599   -0.2200
14     C14     3.3597    1.6701    3.6122 C.2      1 ZINC000019594599   -0.1400
15     C15     3.2669    2.3418    4.8254 C.2      1 ZINC000019594599   -0.1300
16     C16     3.6871    1.6662    5.8917 C.2      1 ZINC000019594599   -0.2000
17     S17     4.2483    0.0749    5.3983 S.3      1 ZINC000019594599    0.2000
18     C18     2.9356    2.2515    2.2711 C.3      1 ZINC000019594599    0.0700
19     H19    -2.1564    1.8549    0.0425 H        1 ZINC000019594599    0.1500
20     H20    -2.1888    4.3170    0.0560 H        1 ZINC000019594599    0.1500
21     H21    -0.0736    5.5764    0.0322 H        1 ZINC000019594599    0.1500
22     H22     2.0753    4.3749   -0.0046 H        1 ZINC000019594599    0.1400
23     H23     2.4333    0.8941   -0.7450 H        1 ZINC000019594599    0.1400
24     H24     3.2795    2.3945   -0.2965 H        1 ZINC000019594599    0.1500
25     H25     3.9281   -0.3326    0.3972 H        1 ZINC000019594599    0.1400
26     H26     4.8469    0.9790    1.1769 H        1 ZINC000019594599    0.1400
27     H27     3.3063   -1.2746    2.5444 H        1 ZINC000019594599    0.1100
28     H28     5.0618   -0.9647    2.6062 H        1 ZINC000019594599    0.1300
29     H29     2.8785    3.3470    4.8978 H        1 ZINC000019594599    0.1500
30     H30     3.6842    2.0386    6.9054 H        1 ZINC000019594599    0.1800
31     H31     3.7048    2.9336    1.9089 H        1 ZINC000019594599    0.1400
32     H32     1.9937    2.7877    2.3866 H        1 ZINC000019594599    0.1400
@<TRIPOS>BOND
1     1     2     1
2     2     7     ar
3     2     3     ar
4     3     4     ar
5     3     19    1
6     4     5     ar
7     4     20    1
8     5     6     ar
9     5     21    1
10    6     7     ar
11    6     22    1
12    7     8     1
13    8     9     1
14    8     23    1
15    8     24    1
16    9     10    1
17    9     18    1
18    9     11    1
19    11    12    1
20    11    25    1
21    11    26    1
22    12    13    1
23    12    27    1
24    12    28    1
25    13    17    1
26    13    14    2
27    14    15    1
28    14    18    1
29    15    16    2
30    15    29    1
31    16    17    1
32    16    30    1
33    18    31    1
34    18    32    1
@<TRIPOS>SUBSTRUCTURE
1   ZINC000019594599 1     RESIDUE    1   A     ZIN   1
