@<TRIPOS>MOLECULE
ZINC000000968264
44    47    1     0     0
SMALL
USER_CHARGES
@<TRIPOS>ATOM
1      C1     -0.0178    1.4648    0.0101 C.3      1 ZINC000000968264   -0.0500
2      N2      0.0021   -0.0041    0.0020 N.4      1 ZINC000000968264   -0.3800
3      H3     -0.9453   -0.3513    0.0092 H        1 ZINC000000968264    0.4200
4      C4      0.7063   -0.4874    1.1956 C.3      1 ZINC000000968264    0.0000
5      C5      0.5798   -2.0127    1.2810 C.3      1 ZINC000000968264   -0.1000
6      C6      1.0749   -2.6021   -0.0235 C.2      1 ZINC000000968264   -0.1700
7      C7      1.9464   -3.6220   -0.0384 C.2      1 ZINC000000968264    0.0300
8      C8      2.4495   -4.2107    1.2246 C.ar     1 ZINC000000968264   -0.0600
9      C9      1.5568   -4.7525    2.1438 C.ar     1 ZINC000000968264   -0.1100
10     C10     2.0295   -5.3422    3.2994 C.ar     1 ZINC000000968264   -0.1100
11     C11     3.3913   -5.4014    3.5466 C.ar     1 ZINC000000968264   -0.1100
12     C12     4.2895   -4.8538    2.6567 C.ar     1 ZINC000000968264   -0.1000
13     C13     3.8306   -4.2292    1.4902 C.ar     1 ZINC000000968264   -0.0400
14     C14     4.7836   -3.5737    0.5996 C.2      1 ZINC000000968264   -0.1000
15     C15     4.7749   -3.5631   -0.7166 C.2      1 ZINC000000968264   -0.1000
16     C16     3.8098   -4.2044   -1.6044 C.ar     1 ZINC000000968264   -0.0400
17     C17     4.2556   -4.8388   -2.7708 C.ar     1 ZINC000000968264   -0.1000
18     C18     3.3486   -5.4066   -3.6388 C.ar     1 ZINC000000968264   -0.1100
19     C19     1.9901   -5.3536   -3.3724 C.ar     1 ZINC000000968264   -0.1100
20     C20     1.5300   -4.7486   -2.2195 C.ar     1 ZINC000000968264   -0.1100
21     C21     2.4264   -4.1935   -1.3184 C.ar     1 ZINC000000968264   -0.0600
22     C22     0.5517   -1.9989   -1.3106 C.3      1 ZINC000000968264   -0.1000
23     C23     0.6833   -0.4745   -1.2099 C.3      1 ZINC000000968264    0.0000
24     H24     1.0047    1.8421    0.0024 H        1 ZINC000000968264    0.1200
25     H25    -0.5450    1.8259   -0.8730 H        1 ZINC000000968264    0.1200
26     H26    -0.5280    1.8163    0.9069 H        1 ZINC000000968264    0.1200
27     H27     1.7593   -0.2132    1.1322 H        1 ZINC000000968264    0.1300
28     H28     0.2662   -0.0360    2.0848 H        1 ZINC000000968264    0.1300
29     H29     1.1854   -2.3863    2.1067 H        1 ZINC000000968264    0.1200
30     H30    -0.4637   -2.2871    1.4360 H        1 ZINC000000968264    0.1000
31     H31     0.4944   -4.7115    1.9537 H        1 ZINC000000968264    0.1300
32     H32     1.3346   -5.7587    4.0137 H        1 ZINC000000968264    0.1300
33     H33     3.7520   -5.8806    4.4447 H        1 ZINC000000968264    0.1300
34     H34     5.3490   -4.9062    2.8591 H        1 ZINC000000968264    0.1300
35     H35     5.5896   -3.0351    1.0759 H        1 ZINC000000968264    0.1200
36     H36     5.5741   -3.0165   -1.1951 H        1 ZINC000000968264    0.1200
37     H37     5.3121   -4.8828   -2.9904 H        1 ZINC000000968264    0.1300
38     H38     3.6998   -5.8974   -4.5344 H        1 ZINC000000968264    0.1300
39     H39     1.2881   -5.7870   -4.0693 H        1 ZINC000000968264    0.1300
40     H40     0.4700   -4.7077   -2.0169 H        1 ZINC000000968264    0.1300
41     H41     1.1393   -2.3635   -2.1532 H        1 ZINC000000968264    0.1200
42     H42    -0.4949   -2.2717   -1.4459 H        1 ZINC000000968264    0.1000
43     H43     0.2246   -0.0118   -2.0837 H        1 ZINC000000968264    0.1300
44     H44     1.7380   -0.2030   -1.1665 H        1 ZINC000000968264    0.1300
@<TRIPOS>BOND
1     1     2     1
2     1     24    1
3     1     25    1
4     1     26    1
5     2     3     1
6     2     23    1
7     2     4     1
8     4     5     1
9     4     27    1
10    4     28    1
11    5     6     1
12    5     29    1
13    5     30    1
14    6     7     2
15    6     22    1
16    7     21    1
17    7     8     1
18    8     13    ar
19    8     9     ar
20    9     10    ar
21    9     31    1
22    10    11    ar
23    10    32    1
24    11    12    ar
25    11    33    1
26    12    13    ar
27    12    34    1
28    13    14    1
29    14    15    2
30    14    35    1
31    15    16    1
32    15    36    1
33    16    21    ar
34    16    17    ar
35    17    18    ar
36    17    37    1
37    18    19    ar
38    18    38    1
39    19    20    ar
40    19    39    1
41    20    21    ar
42    20    40    1
43    22    23    1
44    22    41    1
45    22    42    1
46    23    43    1
47    23    44    1
@<TRIPOS>SUBSTRUCTURE
1   ZINC000000968264 1     RESIDUE    1   A     ZIN   1

@<TRIPOS>MOLECULE
ZINC000000968264
43    46    1     0     0
SMALL
USER_CHARGES
@<TRIPOS>ATOM
1      C1     -0.0178    1.4648    0.0101 C.3      1 ZINC000000968264    0.0200
2      N2      0.0021   -0.0041    0.0020 N.3      1 ZINC000000968264   -0.5500
3      C3     -1.3578   -0.5482   -0.0999 C.3      1 ZINC000000968264    0.0600
4      C4     -1.2844   -2.0589   -0.3500 C.3      1 ZINC000000968264   -0.0800
5      C5     -0.4229   -2.6770    0.7312 C.2      1 ZINC000000968264   -0.0800
6      C6     -0.8349   -3.7564    1.4133 C.2      1 ZINC000000968264   -0.0700
7      C7     -2.1462   -4.3828    1.1255 C.ar     1 ZINC000000968264   -0.0200
8      C8     -2.4231   -4.8622   -0.1508 C.ar     1 ZINC000000968264   -0.1100
9      C9     -3.6274   -5.4873   -0.4068 C.ar     1 ZINC000000968264   -0.1200
10     C10    -4.5616   -5.6439    0.6041 C.ar     1 ZINC000000968264   -0.1200
11     C11    -4.3127   -5.1592    1.8696 C.ar     1 ZINC000000968264   -0.1100
12     C12    -3.1079   -4.5003    2.1451 C.ar     1 ZINC000000968264   -0.0500
13     C13    -2.8921   -3.9119    3.4636 C.2      1 ZINC000000968264   -0.1000
14     C14    -1.7767   -3.8971    4.1624 C.2      1 ZINC000000968264   -0.1000
15     C15    -0.4854   -4.4656    3.7880 C.ar     1 ZINC000000968264   -0.0500
16     C16     0.2866   -5.1269    4.7514 C.ar     1 ZINC000000968264   -0.1100
17     C17     1.5271   -5.6263    4.4196 C.ar     1 ZINC000000968264   -0.1200
18     C18     2.0263   -5.4775    3.1359 C.ar     1 ZINC000000968264   -0.1200
19     C19     1.2745   -4.8444    2.1658 C.ar     1 ZINC000000968264   -0.1100
20     C20     0.0122   -4.3570    2.4702 C.ar     1 ZINC000000968264   -0.0200
21     C21     0.9193   -2.0365    1.0164 C.3      1 ZINC000000968264   -0.0800
22     C22     0.7058   -0.5272    1.1797 C.3      1 ZINC000000968264    0.0600
23     H23     1.0047    1.8421    0.0024 H        1 ZINC000000968264    0.0700
24     H24    -0.5450    1.8259   -0.8730 H        1 ZINC000000968264    0.0700
25     H25    -0.5280    1.8163    0.9069 H        1 ZINC000000968264    0.0200
26     H26    -1.8956   -0.3592    0.8292 H        1 ZINC000000968264    0.0300
27     H27    -1.8806   -0.0678   -0.9270 H        1 ZINC000000968264    0.0800
28     H28    -2.2861   -2.4870   -0.3115 H        1 ZINC000000968264    0.0800
29     H29    -0.8403   -2.2486   -1.3272 H        1 ZINC000000968264    0.0800
30     H30    -1.6964   -4.7452   -0.9412 H        1 ZINC000000968264    0.1300
31     H31    -3.8421   -5.8552   -1.3992 H        1 ZINC000000968264    0.1300
32     H32    -5.4932   -6.1500    0.3984 H        1 ZINC000000968264    0.1200
33     H33    -5.0478   -5.2875    2.6504 H        1 ZINC000000968264    0.1300
34     H34    -3.7467   -3.4334    3.9185 H        1 ZINC000000968264    0.1200
35     H35    -1.8221   -3.4075    5.1239 H        1 ZINC000000968264    0.1200
36     H36    -0.0910   -5.2454    5.7563 H        1 ZINC000000968264    0.1300
37     H37     2.1154   -6.1384    5.1666 H        1 ZINC000000968264    0.1200
38     H38     3.0074   -5.8579    2.8929 H        1 ZINC000000968264    0.1300
39     H39     1.6684   -4.7288    1.1669 H        1 ZINC000000968264    0.1200
40     H40     1.3364   -2.4502    1.9346 H        1 ZINC000000968264    0.0800
41     H41     1.5999   -2.2238    0.1859 H        1 ZINC000000968264    0.0800
42     H42     1.6719   -0.0317    1.2758 H        1 ZINC000000968264    0.0800
43     H43     0.1100   -0.3388    2.0727 H        1 ZINC000000968264    0.0300
@<TRIPOS>BOND
1     1     2     1
2     1     23    1
3     1     24    1
4     1     25    1
5     2     22    1
6     2     3     1
7     3     4     1
8     3     26    1
9     3     27    1
10    4     5     1
11    4     28    1
12    4     29    1
13    5     6     2
14    5     21    1
15    6     20    1
16    6     7     1
17    7     12    ar
18    7     8     ar
19    8     9     ar
20    8     30    1
21    9     10    ar
22    9     31    1
23    10    11    ar
24    10    32    1
25    11    12    ar
26    11    33    1
27    12    13    1
28    13    14    2
29    13    34    1
30    14    15    1
31    14    35    1
32    15    20    ar
33    15    16    ar
34    16    17    ar
35    16    36    1
36    17    18    ar
37    17    37    1
38    18    19    ar
39    18    38    1
40    19    20    ar
41    19    39    1
42    21    22    1
43    21    40    1
44    21    41    1
45    22    42    1
46    22    43    1
@<TRIPOS>SUBSTRUCTURE
1   ZINC000000968264 1     RESIDUE    1   A     ZIN   1
