@<TRIPOS>MOLECULE
ZINC000000010164
31    33    1     0     0
SMALL
USER_CHARGES
@<TRIPOS>ATOM
1      C1     -0.0187    1.5258    0.0104 C.3      1 ZINC000000010164   -0.1500
2      C2      0.0021   -0.0041    0.0020 C.3      1 ZINC000000010164    0.1400
3      H3     -1.0120   -0.4033    0.0220 H        1 ZINC000000010164    0.1100
4      O4      0.7230   -0.4986   -1.1403 O.3      1 ZINC000000010164   -0.3600
5      C5      1.5046   -1.6691   -0.9475 C.3      1 ZINC000000010164    0.1100
6      C6      1.4729   -2.1872    0.5130 C.3      1 ZINC000000010164   -0.1100
7      S7      0.9876   -0.6521    1.4161 S.3      1 ZINC000000010164   -0.2600
8      C8      0.9865   -2.7865   -1.8617 C.3      1 ZINC000000010164   -0.0200
9      N9      2.0371   -3.1992   -2.7941 N.4      1 ZINC000000010164   -0.3700
10     H10     1.6676   -3.9254   -3.3893 H        1 ZINC000000010164    0.4300
11     C11     2.4513   -2.0761   -3.6378 C.3      1 ZINC000000010164   -0.0100
12     C12     3.0302   -0.9556   -2.7712 C.3      1 ZINC000000010164   -0.1300
13     C13     2.9672   -1.3723   -1.3154 C.3      1 ZINC000000010164   -0.1000
14     C14     3.7652   -2.6712   -1.1468 C.3      1 ZINC000000010164   -0.1500
15     C15     3.1887   -3.7384   -2.0669 C.3      1 ZINC000000010164   -0.0100
16     H16     1.0039    1.9031    0.0027 H        1 ZINC000000010164    0.0800
17     H17    -0.5459    1.8868   -0.8726 H        1 ZINC000000010164    0.0900
18     H18    -0.5289    1.8773    0.9072 H        1 ZINC000000010164    0.0900
19     H19     0.7220   -2.9673    0.6375 H        1 ZINC000000010164    0.1100
20     H20     2.4562   -2.5365    0.8280 H        1 ZINC000000010164    0.1400
21     H21     0.6859   -3.6403   -1.2545 H        1 ZINC000000010164    0.1400
22     H22     0.1259   -2.4239   -2.4239 H        1 ZINC000000010164    0.1400
23     H23     3.2089   -2.4147   -4.3446 H        1 ZINC000000010164    0.1300
24     H24     1.5888   -1.6992   -4.1875 H        1 ZINC000000010164    0.1300
25     H25     4.0652   -0.7696   -3.0581 H        1 ZINC000000010164    0.1000
26     H26     2.4426   -0.0477   -2.9074 H        1 ZINC000000010164    0.1100
27     H27     3.3661   -0.5823   -0.6791 H        1 ZINC000000010164    0.1300
28     H28     4.8069   -2.4974   -1.4167 H        1 ZINC000000010164    0.1100
29     H29     3.7053   -3.0046   -0.1108 H        1 ZINC000000010164    0.1000
30     H30     2.8567   -4.5887   -1.4713 H        1 ZINC000000010164    0.1300
31     H31     3.9574   -4.0667   -2.7665 H        1 ZINC000000010164    0.1400
@<TRIPOS>BOND
1     1     2     1
2     1     16    1
3     1     17    1
4     1     18    1
5     2     3     1
6     2     7     1
7     2     4     1
8     4     5     1
9     5     13    1
10    5     6     1
11    5     8     1
12    6     7     1
13    6     19    1
14    6     20    1
15    8     9     1
16    8     21    1
17    8     22    1
18    9     10    1
19    9     15    1
20    9     11    1
21    11    12    1
22    11    23    1
23    11    24    1
24    12    13    1
25    12    25    1
26    12    26    1
27    13    14    1
28    13    27    1
29    14    15    1
30    14    28    1
31    14    29    1
32    15    30    1
33    15    31    1
@<TRIPOS>SUBSTRUCTURE
1   ZINC000000010164 1     RESIDUE    1   A     ZIN   1

@<TRIPOS>MOLECULE
ZINC000000010164
30    32    1     0     0
SMALL
USER_CHARGES
@<TRIPOS>ATOM
1      C1     -0.0187    1.5258    0.0104 C.3      1 ZINC000000010164   -0.1400
2      C2      0.0021   -0.0041    0.0020 C.3      1 ZINC000000010164    0.1500
3      H3     -1.0120   -0.4032    0.0220 H        1 ZINC000000010164    0.1000
4      O4      0.7228   -0.4985   -1.1406 O.3      1 ZINC000000010164   -0.3600
5      C5      1.5070   -1.6673   -0.9467 C.3      1 ZINC000000010164    0.0900
6      C6      1.4713   -2.1875    0.5131 C.3      1 ZINC000000010164   -0.0900
7      S7      0.9872   -0.6519    1.4163 S.3      1 ZINC000000010164   -0.3200
8      C8      0.9958   -2.7857   -1.8649 C.3      1 ZINC000000010164    0.0500
9      N9      2.0667   -3.1876   -2.7858 N.3      1 ZINC000000010164   -0.5200
10     C10     2.4722   -2.0682   -3.6467 C.3      1 ZINC000000010164    0.0500
11     C11     3.0295   -0.9363   -2.7789 C.3      1 ZINC000000010164   -0.1400
12     C12     2.9701   -1.3655   -1.3078 C.3      1 ZINC000000010164   -0.0900
13     C13     3.7920   -2.6484   -1.1363 C.3      1 ZINC000000010164   -0.1500
14     C14     3.2177   -3.7324   -2.0526 C.3      1 ZINC000000010164    0.0500
15     H15     1.0039    1.9031    0.0027 H        1 ZINC000000010164    0.0700
16     H16    -0.5459    1.8868   -0.8726 H        1 ZINC000000010164    0.0800
17     H17    -0.5289    1.8773    0.9072 H        1 ZINC000000010164    0.0800
18     H18     0.7183   -2.9661    0.6352 H        1 ZINC000000010164    0.1000
19     H19     2.4532   -2.5392    0.8298 H        1 ZINC000000010164    0.1200
20     H20     0.6944   -3.6421   -1.2617 H        1 ZINC000000010164    0.0900
21     H21     0.1411   -2.4244   -2.4367 H        1 ZINC000000010164    0.0900
22     H22     3.2405   -2.4047   -4.3429 H        1 ZINC000000010164    0.0800
23     H23     1.6084   -1.7071   -4.2048 H        1 ZINC000000010164    0.0800
24     H24     4.0635   -0.7361   -3.0596 H        1 ZINC000000010164    0.0700
25     H25     2.4297   -0.0375   -2.9217 H        1 ZINC000000010164    0.0800
26     H26     3.3572   -0.5710   -0.6699 H        1 ZINC000000010164    0.0900
27     H27     4.8304   -2.4553   -1.4056 H        1 ZINC000000010164    0.0800
28     H28     3.7379   -2.9806   -0.0995 H        1 ZINC000000010164    0.0700
29     H29     2.8970   -4.5839   -1.4525 H        1 ZINC000000010164    0.0800
30     H30     3.9818   -4.0527   -2.7609 H        1 ZINC000000010164    0.0800
@<TRIPOS>BOND
1     1     2     1
2     1     15    1
3     1     16    1
4     1     17    1
5     2     3     1
6     2     7     1
7     2     4     1
8     4     5     1
9     5     12    1
10    5     6     1
11    5     8     1
12    6     7     1
13    6     18    1
14    6     19    1
15    8     9     1
16    8     20    1
17    8     21    1
18    9     14    1
19    9     10    1
20    10    11    1
21    10    22    1
22    10    23    1
23    11    12    1
24    11    24    1
25    11    25    1
26    12    13    1
27    12    26    1
28    13    14    1
29    13    27    1
30    13    28    1
31    14    29    1
32    14    30    1
@<TRIPOS>SUBSTRUCTURE
1   ZINC000000010164 1     RESIDUE    1   A     ZIN   1
