@<TRIPOS>MOLECULE
ZINC000000004413
41    41    1     0     0
SMALL
USER_CHARGES
@<TRIPOS>ATOM
1      C1     -0.0120   -2.3441    0.7506 C.3      1 ZINC000000004413   -0.1700
2      C2      1.0846   -2.8199   -0.2044 C.3      1 ZINC000000004413    0.1200
3      N3      1.2219   -1.8635   -1.3056 N.am     1 ZINC000000004413   -0.5900
4      C4      2.1535   -0.7390   -1.1873 C.3      1 ZINC000000004413    0.0800
5      C5      0.4911   -2.0181   -2.4275 C.2      1 ZINC000000004413    0.6500
6      O6     -0.2816   -2.9508   -2.5256 O.2      1 ZINC000000004413   -0.5500
7      O7      0.6173   -1.1388   -3.4398 O.3      1 ZINC000000004413   -0.3000
8      C8     -0.0701   -1.4088   -4.5810 C.ar     1 ZINC000000004413    0.1200
9      C9     -1.4337   -1.1636   -4.6451 C.ar     1 ZINC000000004413   -0.0900
10     C10    -2.1302   -1.4390   -5.8062 C.ar     1 ZINC000000004413   -0.0900
11     C11    -1.4690   -1.9584   -6.9035 C.ar     1 ZINC000000004413   -0.1200
12     C12    -0.1095   -2.2042   -6.8420 C.ar     1 ZINC000000004413   -0.1300
13     C13     0.6081   -2.7710   -8.0398 C.3      1 ZINC000000004413    0.0800
14     H14     1.5477   -3.2220   -7.7207 H        1 ZINC000000004413    0.1400
15     C15     0.8946   -1.6496   -9.0404 C.3      1 ZINC000000004413   -0.1800
16     N16    -0.2338   -3.7924   -8.6769 N.4      1 ZINC000000004413   -0.3900
17     H17    -1.1035   -3.3750   -8.9724 H        1 ZINC000000004413    0.4200
18     C18     0.4657   -4.3449   -9.8446 C.3      1 ZINC000000004413   -0.0500
19     C19    -0.5088   -4.8692   -7.7162 C.3      1 ZINC000000004413   -0.0500
20     C20     0.5923   -1.9249   -5.6856 C.ar     1 ZINC000000004413   -0.0900
21     H21     0.2538   -1.3655    1.1504 H        1 ZINC000000004413    0.0600
22     H22    -0.9568   -2.2722    0.2120 H        1 ZINC000000004413    0.0600
23     H23    -0.1141   -3.0557    1.5700 H        1 ZINC000000004413    0.0800
24     H24     2.0295   -2.8919    0.3343 H        1 ZINC000000004413    0.0900
25     H25     0.8188   -3.7985   -0.6041 H        1 ZINC000000004413    0.0900
26     H26     3.1317   -1.0363   -1.5653 H        1 ZINC000000004413    0.0600
27     H27     1.7805    0.1045   -1.7683 H        1 ZINC000000004413    0.0800
28     H28     2.2414   -0.4486   -0.1404 H        1 ZINC000000004413    0.0800
29     H29    -1.9508   -0.7581   -3.7880 H        1 ZINC000000004413    0.1400
30     H30    -3.1921   -1.2485   -5.8565 H        1 ZINC000000004413    0.1500
31     H31    -2.0151   -2.1730   -7.8102 H        1 ZINC000000004413    0.1300
32     H32     1.5193   -0.8917   -8.5677 H        1 ZINC000000004413    0.1100
33     H33     1.4136   -2.0595   -9.9068 H        1 ZINC000000004413    0.0900
34     H34    -0.0450   -1.1986   -9.3596 H        1 ZINC000000004413    0.0800
35     H35    -0.1589   -5.1028  -10.3173 H        1 ZINC000000004413    0.1300
36     H36     0.6698   -3.5460  -10.5574 H        1 ZINC000000004413    0.1300
37     H37     1.4053   -4.7959   -9.5254 H        1 ZINC000000004413    0.1200
38     H38    -1.0279   -4.4592   -6.8498 H        1 ZINC000000004413    0.1200
39     H39    -1.1335   -5.6271   -8.1889 H        1 ZINC000000004413    0.1300
40     H40     0.4308   -5.3201   -7.3970 H        1 ZINC000000004413    0.1200
41     H41     1.6540   -2.1170   -5.6380 H        1 ZINC000000004413    0.1400
@<TRIPOS>BOND
1     1     2     1
2     1     21    1
3     1     22    1
4     1     23    1
5     2     3     1
6     2     24    1
7     2     25    1
8     3     4     1
9     3     5     am
10    4     26    1
11    4     27    1
12    4     28    1
13    5     6     2
14    5     7     1
15    7     8     1
16    8     20    ar
17    8     9     ar
18    9     10    ar
19    9     29    1
20    10    11    ar
21    10    30    1
22    11    12    ar
23    11    31    1
24    12    13    1
25    12    20    ar
26    13    14    1
27    13    15    1
28    13    16    1
29    15    32    1
30    15    33    1
31    15    34    1
32    16    17    1
33    16    18    1
34    16    19    1
35    18    35    1
36    18    36    1
37    18    37    1
38    19    38    1
39    19    39    1
40    19    40    1
41    20    41    1
@<TRIPOS>SUBSTRUCTURE
1   ZINC000000004413 1     RESIDUE    1   A     ZIN   1

@<TRIPOS>MOLECULE
ZINC000000004413
40    40    1     0     0
SMALL
USER_CHARGES
@<TRIPOS>ATOM
1      C1     -0.6028   -2.3456   -0.4312 C.3      1 ZINC000000004413   -0.1700
2      C2     -0.3163   -2.8455    0.9862 C.3      1 ZINC000000004413    0.1300
3      N3      0.5539   -1.8889    1.6747 N.am     1 ZINC000000004413   -0.6000
4      C4     -0.0316   -0.7886    2.4446 C.3      1 ZINC000000004413    0.0800
5      C5      1.8931   -2.0212    1.5998 C.2      1 ZINC000000004413    0.6400
6      O6      2.3787   -2.9339    0.9612 O.2      1 ZINC000000004413   -0.5500
7      O7      2.6930   -1.1419    2.2328 O.3      1 ZINC000000004413   -0.3000
8      C8      4.0291   -1.3905    2.2028 C.ar     1 ZINC000000004413    0.1000
9      C9      4.7622   -1.1110    1.0591 C.ar     1 ZINC000000004413   -0.1100
10     C10     6.1202   -1.3647    1.0310 C.ar     1 ZINC000000004413   -0.1100
11     C11     6.7481   -1.8967    2.1417 C.ar     1 ZINC000000004413   -0.0900
12     C12     6.0193   -2.1768    3.2831 C.ar     1 ZINC000000004413   -0.0700
13     C13     6.7069   -2.7572    4.4920 C.3      1 ZINC000000004413    0.1200
14     H14     5.9680   -3.2327    5.1369 H        1 ZINC000000004413    0.0500
15     C15     7.4129   -1.6398    5.2627 C.3      1 ZINC000000004413   -0.1400
16     N16     7.6953   -3.7550    4.0612 N.3      1 ZINC000000004413   -0.5400
17     C17     8.3870   -4.3434    5.2158 C.3      1 ZINC000000004413    0.0200
18     C18     7.0673   -4.7962    3.2369 C.3      1 ZINC000000004413    0.0200
19     C19     4.6628   -1.9192    3.3182 C.ar     1 ZINC000000004413   -0.1100
20     H20     0.3347   -2.2481   -0.9785 H        1 ZINC000000004413    0.0600
21     H21    -1.2502   -3.0573   -0.9435 H        1 ZINC000000004413    0.0700
22     H22    -1.0971   -1.3754   -0.3813 H        1 ZINC000000004413    0.0600
23     H23    -1.2538   -2.9430    1.5335 H        1 ZINC000000004413    0.0900
24     H24     0.1780   -3.8157    0.9363 H        1 ZINC000000004413    0.0900
25     H25    -0.1884   -1.1091    3.4746 H        1 ZINC000000004413    0.0600
26     H26     0.6448    0.0660    2.4290 H        1 ZINC000000004413    0.0800
27     H27    -0.9867   -0.5042    2.0032 H        1 ZINC000000004413    0.0800
28     H28     4.2720   -0.6956    0.1910 H        1 ZINC000000004413    0.1300
29     H29     6.6914   -1.1475    0.1406 H        1 ZINC000000004413    0.1300
30     H30     7.8096   -2.0944    2.1179 H        1 ZINC000000004413    0.1400
31     H31     6.6795   -0.8995    5.5824 H        1 ZINC000000004413    0.0600
32     H32     7.9102   -2.0597    6.1371 H        1 ZINC000000004413    0.0600
33     H33     8.1518   -1.1643    4.6178 H        1 ZINC000000004413    0.0700
34     H34     7.6597   -4.8300    5.8658 H        1 ZINC000000004413    0.0300
35     H35     9.1129   -5.0786    4.8685 H        1 ZINC000000004413    0.0700
36     H36     8.9015   -3.5584    5.7699 H        1 ZINC000000004413    0.0700
37     H37     6.6225   -4.3403    2.3524 H        1 ZINC000000004413    0.0700
38     H38     7.8212   -5.5218    2.9315 H        1 ZINC000000004413    0.0700
39     H39     6.2922   -5.2991    3.8152 H        1 ZINC000000004413    0.0300
40     H40     4.0940   -2.1381    4.2098 H        1 ZINC000000004413    0.1300
@<TRIPOS>BOND
1     1     2     1
2     1     20    1
3     1     21    1
4     1     22    1
5     2     3     1
6     2     23    1
7     2     24    1
8     3     4     1
9     3     5     am
10    4     25    1
11    4     26    1
12    4     27    1
13    5     6     2
14    5     7     1
15    7     8     1
16    8     19    ar
17    8     9     ar
18    9     10    ar
19    9     28    1
20    10    11    ar
21    10    29    1
22    11    12    ar
23    11    30    1
24    12    13    1
25    12    19    ar
26    13    14    1
27    13    15    1
28    13    16    1
29    15    31    1
30    15    32    1
31    15    33    1
32    16    17    1
33    16    18    1
34    17    34    1
35    17    35    1
36    17    36    1
37    18    37    1
38    18    38    1
39    18    39    1
40    19    40    1
@<TRIPOS>SUBSTRUCTURE
1   ZINC000000004413 1     RESIDUE    1   A     ZIN   1
