@<TRIPOS>MOLECULE
ZINC000006661227
  20   20    0    0    0
SMALL
USER_CHARGES
NO_NAME
@<TRIPOS>ATOM
    1 N1       -0.0116     1.0048     0.0076 N.4    1 <0>      -0.6100
    2 H2        0.0021    -0.0041     0.0020 H      1 <0>       0.4300
    3 H3        0.9350     1.3541     0.0004 H      1 <0>       0.4100
    4 H4       -0.4996     1.3391    -0.8099 H      1 <0>       0.4300
    5 C5       -0.6992     1.4786     1.2162 C.3    1 <0>      -0.0400
    6 H6       -0.1720     1.1175     2.0992 H      1 <0>       0.1400
    7 C7       -0.7199     3.0084     1.2246 C.3    1 <0>      -0.0400
    8 C8        0.6896     3.5293     1.3378 C.2    1 <0>      -0.0300
    9 C9        1.2817     4.3993     0.4974 C.2    1 <0>      -0.0500
   10 N10       2.5519     4.6007     0.9662 N.pl3  1 <0>      -0.5700
   11 C11       2.6919     3.8463     2.0775 C.2    1 <0>       0.1900
   12 N12       1.5725     3.2122     2.2964 N.2    1 <0>      -0.4900
   13 C13      -2.1130     0.9569     1.2269 C.2    1 <0>       0.4900
   14 O14      -2.8004     1.0794     2.2264 O.co2  1 <0>      -0.6300
   15 O15      -2.5694     0.4125     0.2361 O.co2  1 <0>      -0.6800
   16 H16      -1.1680     3.3708     0.2994 H      1 <0>       0.0900
   17 H17      -1.3062     3.3592     2.0739 H      1 <0>       0.1200
   18 H18       0.8394     4.8509    -0.3783 H      1 <0>       0.1800
   19 H19       3.2256     5.1776     0.5735 H      1 <0>       0.4300
   20 H20       3.5814     3.7817     2.6864 H      1 <0>       0.2100
@<TRIPOS>BOND
   1    1    2 1
   2    1    3 1
   3    1    4 1
   4    1    5 1
   5    5    6 1
   6    5    7 1
   7    5   13 1
   8    7    8 1
   9    7   16 1
  10    7   17 1
  11    8   12 1
  12    8    9 2
  13    9   10 1
  14    9   18 1
  15   10   11 1
  16   10   19 1
  17   11   12 2
  18   11   20 1
  19   13   14 ar
  20   13   15 ar

@<TRIPOS>MOLECULE
ZINC000006661227
  20   20    0    0    0
SMALL
USER_CHARGES
NO_NAME
@<TRIPOS>ATOM
    1 N1       -0.0116     1.0048     0.0076 N.4    1 <0>      -0.6100
    2 H2        0.0021    -0.0041     0.0020 H      1 <0>       0.4100
    3 H3        0.9350     1.3541     0.0004 H      1 <0>       0.4300
    4 H4       -0.4996     1.3391    -0.8099 H      1 <0>       0.4400
    5 C5       -0.6992     1.4786     1.2162 C.3    1 <0>      -0.0500
    6 H6       -1.7218     1.1013     1.2239 H      1 <0>       0.1400
    7 C7        0.0408     0.9717     2.4557 C.3    1 <0>      -0.0400
    8 C8       -0.0446    -0.5318     2.5119 C.2    1 <0>      -0.0700
    9 C9       -1.0523    -1.2598     3.0296 C.2    1 <0>       0.0100
   10 N10      -0.7442    -2.5571     2.8844 N.2    1 <0>      -0.4900
   11 C11       0.4162    -2.6607     2.2963 C.2    1 <0>       0.2000
   12 N12       0.8846    -1.4200     2.0413 N.pl3  1 <0>      -0.5800
   13 C13      -0.7196     2.9854     1.2245 C.2    1 <0>       0.4900
   14 O14      -1.3988     3.5814     2.0431 O.co2  1 <0>      -0.6300
   15 O15      -0.0570     3.6085     0.4126 O.co2  1 <0>      -0.6700
   16 H16       1.0866     1.2746     2.4037 H      1 <0>       0.0900
   17 H17      -0.4161     1.3953     3.3501 H      1 <0>       0.1300
   18 H18      -1.9510    -0.8678     3.4824 H      1 <0>       0.1800
   19 H19       0.9171    -3.5854     2.0507 H      1 <0>       0.2100
   20 H20       1.7253    -1.1994     1.6108 H      1 <0>       0.4200
@<TRIPOS>BOND
   1    1    2 1
   2    1    3 1
   3    1    4 1
   4    1    5 1
   5    5    6 1
   6    5    7 1
   7    5   13 1
   8    7    8 1
   9    7   16 1
  10    7   17 1
  11    8   12 1
  12    8    9 2
  13    9   10 1
  14    9   18 1
  15   10   11 2
  16   11   12 1
  17   11   19 1
  18   12   20 1
  19   13   14 ar
  20   13   15 ar

@<TRIPOS>MOLECULE
ZINC000006661227
  21   21    0    0    0
SMALL
USER_CHARGES
NO_NAME
@<TRIPOS>ATOM
    1 N1       -0.0116     1.0048     0.0076 N.4    1 <0>      -0.6200
    2 H2        0.0021    -0.0041     0.0020 H      1 <0>       0.4300
    3 H3        0.9350     1.3541     0.0004 H      1 <0>       0.4500
    4 H4       -0.4996     1.3391    -0.8099 H      1 <0>       0.4000
    5 C5       -0.6992     1.4786     1.2162 C.3    1 <0>      -0.0500
    6 H6       -0.7140     2.5685     1.2222 H      1 <0>       0.1400
    7 C7       -2.1346     0.9490     1.2270 C.3    1 <0>      -0.0600
    8 C8       -2.8990     1.5459     0.0736 C.2    1 <0>       0.0200
    9 C9       -3.5238     2.7387     0.0562 C.2    1 <0>       0.0300
   10 N10      -4.0828     2.8968    -1.1528 N.pl3  1 <0>      -0.4700
   11 H11      -4.5952     3.6694    -1.4378 H      1 <0>       0.4700
   12 C12      -3.8280     1.8472    -1.8852 C.cat  1 <0>       0.3200
   13 N13      -3.0866     0.9825    -1.1597 N.pl3  1 <0>      -0.5200
   14 C14       0.0297     0.9794     2.4371 C.2    1 <0>       0.4900
   15 O15       1.0293     0.2926     2.3120 O.co2  1 <0>      -0.6500
   16 O16      -0.3802     1.2622     3.5499 O.co2  1 <0>      -0.6200
   17 H17      -2.1220    -0.1367     1.1315 H      1 <0>       0.1200
   18 H18      -2.6169     1.2257     2.1646 H      1 <0>       0.1600
   19 H19      -3.5673     3.4444     0.8726 H      1 <0>       0.2300
   20 H20      -4.1529     1.6968    -2.9042 H      1 <0>       0.2700
   21 H21      -2.7546     0.1204    -1.4552 H      1 <0>       0.4600
@<TRIPOS>BOND
   1    1    2 1
   2    1    3 1
   3    1    4 1
   4    1    5 1
   5    5    6 1
   6    5    7 1
   7    5   14 1
   8    7    8 1
   9    7   17 1
  10    7   18 1
  11    8   13 1
  12    8    9 2
  13    9   10 1
  14    9   19 1
  15   10   11 1
  16   10   12 ar
  17   12   13 ar
  18   12   20 1
  19   13   21 1
  20   14   15 ar
  21   14   16 ar
