@<TRIPOS>MOLECULE
ZINC000003874950
35    35    1     0     0
SMALL
USER_CHARGES
@<TRIPOS>ATOM
1      C1     -0.0189    1.3102    0.0336 C.2      1 ZINC000003874950   -0.1600
2      C2      0.0047    0.0007    0.0065 C.2      1 ZINC000003874950   -0.1900
3      C3      1.3232   -0.7290   -0.0046 C.3      1 ZINC000003874950   -0.0800
4      C4      1.3651   -1.7242    1.1568 C.3      1 ZINC000003874950   -0.1100
5      C5      2.6799   -2.5013    1.0664 C.3      1 ZINC000003874950   -0.0700
6      H6      2.6785   -3.1143    0.1650 H        1 ZINC000003874950    0.1000
7      C7      2.8260   -3.4014    2.2950 C.3      1 ZINC000003874950   -0.1600
8      C8      3.8509   -1.5180    1.0124 C.3      1 ZINC000003874950   -0.1300
9      C9      5.1547   -2.2889    0.7968 C.3      1 ZINC000003874950   -0.1200
10     C10     6.3256   -1.3055    0.7429 C.3      1 ZINC000003874950   -0.1500
11     C11     1.3753   -0.9366    2.4532 C.2      1 ZINC000003874950    0.5500
12     O12     2.2458   -0.1268    2.6900 O.2      1 ZINC000003874950   -0.4600
13     N13     0.3787   -1.1705    3.3333 N.am     1 ZINC000003874950   -0.6700
14     C14    -0.5895   -2.0603    3.0869 C.2      1 ZINC000003874950    0.7200
15     O15    -1.4478   -2.2076    3.9340 O.2      1 ZINC000003874950   -0.5200
16     N16    -0.6819   -2.7996    1.9755 N.am     1 ZINC000003874950   -0.6700
17     C17     0.2230   -2.7065    0.9781 C.2      1 ZINC000003874950    0.5400
18     O18     0.1266   -3.3832   -0.0232 O.2      1 ZINC000003874950   -0.4600
19     H19     0.9065    1.8668    0.0480 H        1 ZINC000003874950    0.1000
20     H20    -0.9638    1.8333    0.0370 H        1 ZINC000003874950    0.1000
21     H21    -0.9206   -0.5559   -0.0080 H        1 ZINC000003874950    0.1100
22     H22     1.4337   -1.2655   -0.9469 H        1 ZINC000003874950    0.1000
23     H23     2.1366   -0.0114    0.1024 H        1 ZINC000003874950    0.1000
24     H24     3.7986   -3.8928    2.2718 H        1 ZINC000003874950    0.0800
25     H25     2.7453   -2.7979    3.1991 H        1 ZINC000003874950    0.0600
26     H26     2.0381   -4.1545    2.2893 H        1 ZINC000003874950    0.0600
27     H27     3.7012   -0.8196    0.1890 H        1 ZINC000003874950    0.0700
28     H28     3.9058   -0.9666    1.9511 H        1 ZINC000003874950    0.0900
29     H29     5.3044   -2.9872    1.6202 H        1 ZINC000003874950    0.0600
30     H30     5.0998   -2.8403   -0.1418 H        1 ZINC000003874950    0.0600
31     H31     6.1760   -0.6072   -0.0805 H        1 ZINC000003874950    0.0500
32     H32     6.3805   -0.7541    1.6815 H        1 ZINC000003874950    0.0500
33     H33     7.2546   -1.8547    0.5892 H        1 ZINC000003874950    0.0500
34     H34     0.3643   -0.6790    4.1694 H        1 ZINC000003874950    0.4400
35     H35    -1.4209   -3.4211    1.8840 H        1 ZINC000003874950    0.4400
@<TRIPOS>BOND
1     1     2     2
2     1     19    1
3     1     20    1
4     2     3     1
5     2     21    1
6     3     4     1
7     3     22    1
8     3     23    1
9     4     17    1
10    4     5     1
11    4     11    1
12    5     6     1
13    5     7     1
14    5     8     1
15    7     24    1
16    7     25    1
17    7     26    1
18    8     9     1
19    8     27    1
20    8     28    1
21    9     10    1
22    9     29    1
23    9     30    1
24    10    31    1
25    10    32    1
26    10    33    1
27    11    12    2
28    11    13    am
29    13    14    am
30    13    34    1
31    14    15    2
32    14    16    am
33    16    17    am
34    16    35    1
35    17    18    2
@<TRIPOS>SUBSTRUCTURE
1   ZINC000003874950 1     RESIDUE    1   A     ZIN   1

@<TRIPOS>MOLECULE
ZINC000003874950
34    34    1     0     0
SMALL
USER_CHARGES
@<TRIPOS>ATOM
1      C1     -0.0126    1.3106   -0.0151 C.2      1 ZINC000003874950   -0.1800
2      C2     -0.0007    0.0007   -0.0024 C.2      1 ZINC000003874950   -0.1600
3      C3     -1.2989   -0.7646    0.0004 C.3      1 ZINC000003874950   -0.0700
4      C4     -1.3140   -1.7478   -1.1718 C.3      1 ZINC000003874950   -0.1500
5      C5     -2.6072   -2.5612   -1.0901 C.3      1 ZINC000003874950   -0.0600
6      H6     -2.5890   -3.1838   -0.1956 H        1 ZINC000003874950    0.0700
7      C7     -2.7290   -3.4513   -2.3286 C.3      1 ZINC000003874950   -0.1500
8      C8     -3.8044   -1.6106   -1.0256 C.3      1 ZINC000003874950   -0.1200
9      C9     -5.0868   -2.4189   -0.8186 C.3      1 ZINC000003874950   -0.1200
10     C10    -6.2840   -1.4683   -0.7540 C.3      1 ZINC000003874950   -0.1500
11     C11    -1.3457   -0.9464   -2.4595 C.2      1 ZINC000003874950    0.5300
12     O12    -2.2380   -0.1580   -2.6875 O.2      1 ZINC000003874950   -0.5500
13     N13    -0.3433   -1.1436   -3.3419 N.pl3    1 ZINC000003874950   -0.7100
14     C14     0.6488   -2.0095   -3.1052 C.2      1 ZINC000003874950    0.6600
15     O15     1.5106   -2.1241   -3.9537 O.2      1 ZINC000003874950   -0.6000
16     N16     0.7613   -2.7581   -2.0020 N.am     1 ZINC000003874950   -0.7000
17     C17    -0.1456   -2.7006   -1.0037 C.2      1 ZINC000003874950    0.5500
18     O18    -0.0308   -3.3854   -0.0099 O.2      1 ZINC000003874950   -0.5300
19     H19     0.9178    1.8590   -0.0171 H        1 ZINC000003874950    0.0900
20     H20    -0.9527    1.8419   -0.0280 H        1 ZINC000003874950    0.1000
21     H21     0.9394   -0.5308    0.0061 H        1 ZINC000003874950    0.1000
22     H22    -1.3947   -1.3143    0.9368 H        1 ZINC000003874950    0.0800
23     H23    -2.1315   -0.0682   -0.0988 H        1 ZINC000003874950    0.0900
24     H24    -1.9209   -4.1828   -2.3311 H        1 ZINC000003874950    0.0500
25     H25    -3.6879   -3.9692   -2.3110 H        1 ZINC000003874950    0.0600
26     H26    -2.6648   -2.8359   -3.2260 H        1 ZINC000003874950    0.0600
27     H27    -3.6736   -0.9176   -0.1945 H        1 ZINC000003874950    0.0600
28     H28    -3.8744   -1.0506   -1.9581 H        1 ZINC000003874950    0.1000
29     H29    -5.2176   -3.1120   -1.6497 H        1 ZINC000003874950    0.0600
30     H30    -5.0169   -2.9789    0.1139 H        1 ZINC000003874950    0.0500
31     H31    -7.1976   -2.0442   -0.6066 H        1 ZINC000003874950    0.0500
32     H32    -6.1532   -0.7753    0.0770 H        1 ZINC000003874950    0.0500
33     H33    -6.3540   -0.9083   -1.6866 H        1 ZINC000003874950    0.0500
34     H34     1.5169   -3.3604   -1.9172 H        1 ZINC000003874950    0.3900
@<TRIPOS>BOND
1     1     2     2
2     1     19    1
3     1     20    1
4     2     3     1
5     2     21    1
6     3     4     1
7     3     22    1
8     3     23    1
9     4     17    1
10    4     5     1
11    4     11    1
12    5     6     1
13    5     7     1
14    5     8     1
15    7     24    1
16    7     25    1
17    7     26    1
18    8     9     1
19    8     27    1
20    8     28    1
21    9     10    1
22    9     29    1
23    9     30    1
24    10    31    1
25    10    32    1
26    10    33    1
27    11    12    2
28    11    13    1
29    13    14    1
30    14    15    2
31    14    16    am
32    16    17    am
33    16    34    1
34    17    18    2
@<TRIPOS>SUBSTRUCTURE
1   ZINC000003874950 1     RESIDUE    1   A     ZIN   1
