@<TRIPOS>MOLECULE
ZINC000000004893
36    39    1     0     0
SMALL
USER_CHARGES
@<TRIPOS>ATOM
1      C1     -0.0178    1.4648    0.0101 C.3      1 ZINC000000004893    0.0200
2      N2      0.0021   -0.0041    0.0020 N.3      1 ZINC000000004893   -0.5300
3      C3     -1.3766   -0.5548   -0.0062 C.3      1 ZINC000000004893    0.0500
4      C4     -1.4892   -1.4297    1.2435 C.3      1 ZINC000000004893   -0.0700
5      H5     -1.8315   -0.7931    2.0594 H        1 ZINC000000004893    0.0800
6      C6     -2.4045   -2.5845    1.1600 C.ar     1 ZINC000000004893   -0.1000
7      C7     -3.0364   -2.9537   -0.0099 C.ar     1 ZINC000000004893   -0.1000
8      C8     -3.8569   -4.0674   -0.0303 C.ar     1 ZINC000000004893   -0.1200
9      C9     -4.0446   -4.8151    1.1174 C.ar     1 ZINC000000004893   -0.1000
10     C10    -3.4245   -4.4422    2.2957 C.ar     1 ZINC000000004893   -0.1200
11     C11    -2.6176   -3.3178    2.3214 C.ar     1 ZINC000000004893    0.1000
12     O12    -2.0669   -2.8635    3.4638 O.3      1 ZINC000000004893   -0.2800
13     C13    -0.7493   -2.8598    3.7417 C.ar     1 ZINC000000004893    0.1300
14     C14    -0.3779   -3.3586    4.9921 C.ar     1 ZINC000000004893   -0.1200
15     C15     0.9445   -3.4211    5.3687 C.ar     1 ZINC000000004893   -0.0900
16     C16     1.9219   -2.9838    4.4924 C.ar     1 ZINC000000004893   -0.0500
17     Cl17    3.5962   -3.0670    4.9434 Cl       1 ZINC000000004893   -0.0600
18     C18     1.5623   -2.4826    3.2609 C.ar     1 ZINC000000004893   -0.0900
19     C19     0.2260   -2.4026    2.8698 C.ar     1 ZINC000000004893   -0.1000
20     C20    -0.0548   -1.8153    1.5410 C.3      1 ZINC000000004893   -0.0500
21     H21     0.2258   -2.5607    0.7969 H        1 ZINC000000004893    0.0900
22     C22     0.7156   -0.5345    1.1960 C.3      1 ZINC000000004893    0.0600
23     H23     1.0047    1.8421    0.0024 H        1 ZINC000000004893    0.0700
24     H24    -0.5450    1.8259   -0.8730 H        1 ZINC000000004893    0.0700
25     H25    -0.5280    1.8163    0.9069 H        1 ZINC000000004893    0.0300
26     H26    -2.1047    0.2553    0.0359 H        1 ZINC000000004893    0.0700
27     H27    -1.5350   -1.1565   -0.9012 H        1 ZINC000000004893    0.0900
28     H28    -2.8909   -2.3733   -0.9090 H        1 ZINC000000004893    0.1300
29     H29    -4.3530   -4.3536   -0.9460 H        1 ZINC000000004893    0.1300
30     H30    -4.6761   -5.6909    1.0937 H        1 ZINC000000004893    0.1300
31     H31    -3.5696   -5.0258    3.1928 H        1 ZINC000000004893    0.1300
32     H32    -1.1412   -3.7007    5.6753 H        1 ZINC000000004893    0.1400
33     H33     1.2169   -3.8084    6.3394 H        1 ZINC000000004893    0.1400
34     H34     2.3320   -2.1438    2.5834 H        1 ZINC000000004893    0.1400
35     H35     1.7548   -0.7642    0.9605 H        1 ZINC000000004893    0.0900
36     H36     0.6568    0.1806    2.0165 H        1 ZINC000000004893    0.0600
@<TRIPOS>BOND
1     1     2     1
2     1     23    1
3     1     24    1
4     1     25    1
5     2     22    1
6     2     3     1
7     3     4     1
8     3     26    1
9     3     27    1
10    4     5     1
11    4     20    1
12    4     6     1
13    6     11    ar
14    6     7     ar
15    7     8     ar
16    7     28    1
17    8     9     ar
18    8     29    1
19    9     10    ar
20    9     30    1
21    10    11    ar
22    10    31    1
23    11    12    1
24    12    13    1
25    13    19    ar
26    13    14    ar
27    14    15    ar
28    14    32    1
29    15    16    ar
30    15    33    1
31    16    17    1
32    16    18    ar
33    18    19    ar
34    18    34    1
35    19    20    1
36    20    21    1
37    20    22    1
38    22    35    1
39    22    36    1
@<TRIPOS>SUBSTRUCTURE
1   ZINC000000004893 1     RESIDUE    1   A     ZIN   1

@<TRIPOS>MOLECULE
ZINC000000004893
37    40    1     0     0
SMALL
USER_CHARGES
@<TRIPOS>ATOM
1      C1     -0.0178    1.4648    0.0101 C.3      1 ZINC000000004893   -0.0500
2      N2      0.0021   -0.0041    0.0020 N.4      1 ZINC000000004893   -0.4000
3      H3      0.4621   -0.3337   -0.8333 H        1 ZINC000000004893    0.4300
4      C4     -1.3882   -0.5231    0.0451 C.3      1 ZINC000000004893    0.0000
5      C5     -1.4926   -1.3441    1.3315 C.3      1 ZINC000000004893   -0.0600
6      H6     -1.8030   -0.6674    2.1278 H        1 ZINC000000004893    0.1100
7      C7     -2.4347   -2.4801    1.3145 C.ar     1 ZINC000000004893   -0.1200
8      C8     -3.1000   -2.8816    0.1741 C.ar     1 ZINC000000004893   -0.1000
9      C9     -3.9450   -3.9763    0.2163 C.ar     1 ZINC000000004893   -0.1100
10     C10    -4.1239   -4.6726    1.3972 C.ar     1 ZINC000000004893   -0.0800
11     C11    -3.4703   -4.2667    2.5461 C.ar     1 ZINC000000004893   -0.1100
12     C12    -2.6384   -3.1609    2.5090 C.ar     1 ZINC000000004893    0.1200
13     O13    -2.0531   -2.6736    3.6201 O.3      1 ZINC000000004893   -0.2800
14     C14    -0.7300   -2.6888    3.8700 C.ar     1 ZINC000000004893    0.1500
15     C15    -0.3424   -3.1451    5.1317 C.ar     1 ZINC000000004893   -0.1200
16     C16     0.9863   -3.2226    5.4828 C.ar     1 ZINC000000004893   -0.0700
17     C17     1.9536   -2.8433    4.5690 C.ar     1 ZINC000000004893   -0.0400
18     Cl18    3.6352   -2.9465    4.9879 Cl       1 ZINC000000004893   -0.0500
19     C19     1.5783   -2.3842    3.3260 C.ar     1 ZINC000000004893   -0.0900
20     C20     0.2358   -2.2895    2.9599 C.ar     1 ZINC000000004893   -0.1200
21     C21    -0.0610   -1.7501    1.6145 C.3      1 ZINC000000004893   -0.0600
22     H22     0.1869   -2.5311    0.8957 H        1 ZINC000000004893    0.1000
23     C23     0.7269   -0.5021    1.2031 C.3      1 ZINC000000004893    0.0000
24     H24     1.0047    1.8421    0.0024 H        1 ZINC000000004893    0.1300
25     H25    -0.5450    1.8259   -0.8730 H        1 ZINC000000004893    0.1300
26     H26    -0.5280    1.8163    0.9069 H        1 ZINC000000004893    0.1200
27     H27    -2.0972    0.3045    0.0693 H        1 ZINC000000004893    0.1400
28     H28    -1.5793   -1.1566   -0.8210 H        1 ZINC000000004893    0.1400
29     H29    -2.9614   -2.3414   -0.7508 H        1 ZINC000000004893    0.1300
30     H30    -4.4671   -4.2877   -0.6764 H        1 ZINC000000004893    0.1400
31     H31    -4.7749   -5.5340    1.4224 H        1 ZINC000000004893    0.1400
32     H32    -3.6085   -4.8102    3.4690 H        1 ZINC000000004893    0.1400
33     H33    -1.0980   -3.4419    5.8441 H        1 ZINC000000004893    0.1500
34     H34     1.2711   -3.5758    6.4628 H        1 ZINC000000004893    0.1500
35     H35     2.3403   -2.0906    2.6192 H        1 ZINC000000004893    0.1400
36     H36     1.7560   -0.7630    0.9561 H        1 ZINC000000004893    0.1500
37     H37     0.6999    0.2463    1.9951 H        1 ZINC000000004893    0.1400
@<TRIPOS>BOND
1     1     2     1
2     1     24    1
3     1     25    1
4     1     26    1
5     2     3     1
6     2     23    1
7     2     4     1
8     4     5     1
9     4     27    1
10    4     28    1
11    5     6     1
12    5     21    1
13    5     7     1
14    7     12    ar
15    7     8     ar
16    8     9     ar
17    8     29    1
18    9     10    ar
19    9     30    1
20    10    11    ar
21    10    31    1
22    11    12    ar
23    11    32    1
24    12    13    1
25    13    14    1
26    14    20    ar
27    14    15    ar
28    15    16    ar
29    15    33    1
30    16    17    ar
31    16    34    1
32    17    18    1
33    17    19    ar
34    19    20    ar
35    19    35    1
36    20    21    1
37    21    22    1
38    21    23    1
39    23    36    1
40    23    37    1
@<TRIPOS>SUBSTRUCTURE
1   ZINC000000004893 1     RESIDUE    1   A     ZIN   1

@<TRIPOS>MOLECULE
ZINC000000004893
37    40    1     0     0
SMALL
USER_CHARGES
@<TRIPOS>ATOM
1      C1     -0.0178    1.4648    0.0101 C.3      1 ZINC000000004893   -0.0500
2      N2      0.0021   -0.0041    0.0020 N.4      1 ZINC000000004893   -0.4000
3      H3     -0.9430   -0.3574   -0.0042 H        1 ZINC000000004893    0.4300
4      C4      0.7263   -0.4888   -1.2042 C.3      1 ZINC000000004893    0.0000
5      C5      1.4907   -1.7248   -0.7038 C.3      1 ZINC000000004893   -0.0600
6      H6      0.7891   -2.5546   -0.6186 H        1 ZINC000000004893    0.1100
7      C7      2.6313   -2.1538   -1.5402 C.ar     1 ZINC000000004893   -0.1200
8      C8      3.0287   -1.4628   -2.6667 C.ar     1 ZINC000000004893   -0.1000
9      C9      4.1253   -1.8948   -3.3912 C.ar     1 ZINC000000004893   -0.1100
10     C10     4.8274   -3.0160   -2.9892 C.ar     1 ZINC000000004893   -0.0800
11     C11     4.4257   -3.7195   -1.8687 C.ar     1 ZINC000000004893   -0.1100
12     C12     3.3178   -3.2979   -1.1531 C.ar     1 ZINC000000004893    0.1200
13     O13     2.8364   -4.0035   -0.1113 O.3      1 ZINC000000004893   -0.2800
14     C14     2.8524   -3.5974    1.1725 C.ar     1 ZINC000000004893    0.1400
15     C15     3.3138   -4.5223    2.1112 C.ar     1 ZINC000000004893   -0.1200
16     C16     3.3921   -4.2007    3.4474 C.ar     1 ZINC000000004893   -0.0700
17     C17     3.0088   -2.9387    3.8657 C.ar     1 ZINC000000004893   -0.0400
18     Cl18    3.1129   -2.5092    5.5446 Cl       1 ZINC000000004893   -0.0500
19     C19     2.5448   -2.0242    2.9464 C.ar     1 ZINC000000004893   -0.0900
20     C20     2.4486   -2.3392    1.5911 C.ar     1 ZINC000000004893   -0.1200
21     C21     1.9046   -1.3012    0.6903 C.3      1 ZINC000000004893   -0.0600
22     H22     2.7059   -0.5766    0.5452 H        1 ZINC000000004893    0.1000
23     C23     0.7141   -0.5012    1.2068 C.3      1 ZINC000000004893    0.0000
24     H24     1.0047    1.8421    0.0024 H        1 ZINC000000004893    0.1200
25     H25    -0.5450    1.8259   -0.8730 H        1 ZINC000000004893    0.1300
26     H26    -0.5280    1.8163    0.9069 H        1 ZINC000000004893    0.1300
27     H27     0.0213   -0.7665   -1.9878 H        1 ZINC000000004893    0.1500
28     H28     1.4206    0.2704   -1.5644 H        1 ZINC000000004893    0.1400
29     H29     2.4838   -0.5855   -2.9827 H        1 ZINC000000004893    0.1300
30     H30     4.4338   -1.3547   -4.2741 H        1 ZINC000000004893    0.1400
31     H31     5.6899   -3.3427   -3.5510 H        1 ZINC000000004893    0.1400
32     H32     4.9739   -4.5948   -1.5530 H        1 ZINC000000004893    0.1400
33     H33     3.6140   -5.5066    1.7836 H        1 ZINC000000004893    0.1500
34     H34     3.7491   -4.9268    4.1626 H        1 ZINC000000004893    0.1500
35     H35     2.2486   -1.0415    3.2824 H        1 ZINC000000004893    0.1400
36     H36     1.0582    0.3307    1.8212 H        1 ZINC000000004893    0.1400
37     H37     0.0499   -1.1454    1.7830 H        1 ZINC000000004893    0.1400
@<TRIPOS>BOND
1     1     2     1
2     1     24    1
3     1     25    1
4     1     26    1
5     2     3     1
6     2     23    1
7     2     4     1
8     4     5     1
9     4     27    1
10    4     28    1
11    5     6     1
12    5     21    1
13    5     7     1
14    7     12    ar
15    7     8     ar
16    8     9     ar
17    8     29    1
18    9     10    ar
19    9     30    1
20    10    11    ar
21    10    31    1
22    11    12    ar
23    11    32    1
24    12    13    1
25    13    14    1
26    14    20    ar
27    14    15    ar
28    15    16    ar
29    15    33    1
30    16    17    ar
31    16    34    1
32    17    18    1
33    17    19    ar
34    19    20    ar
35    19    35    1
36    20    21    1
37    21    22    1
38    21    23    1
39    23    36    1
40    23    37    1
@<TRIPOS>SUBSTRUCTURE
1   ZINC000000004893 1     RESIDUE    1   A     ZIN   1
