@<TRIPOS>MOLECULE
ZINC000036294079
32    33    1     0     0
SMALL
USER_CHARGES
@<TRIPOS>ATOM
1      C1     -0.0245    1.4715    0.0600 C.3      1 ZINC000036294079    0.0000
2      N2     -0.0007    0.0037    0.0062 N.3      1 ZINC000036294079   -0.6600
3      C3     -1.3557   -0.5497    0.1316 C.3      1 ZINC000036294079    0.1100
4      C4     -2.1666   -0.1833   -1.0846 C.ar     1 ZINC000036294079   -0.1000
5      C5     -1.5653    0.4653   -2.1465 C.ar     1 ZINC000036294079   -0.1100
6      C6     -2.3092    0.8016   -3.2624 C.ar     1 ZINC000036294079   -0.1100
7      C7     -3.6546    0.4897   -3.3164 C.ar     1 ZINC000036294079   -0.1000
8      C8     -4.2572   -0.1591   -2.2549 C.ar     1 ZINC000036294079   -0.1100
9      C9     -3.5121   -0.5013   -1.1408 C.ar     1 ZINC000036294079   -0.0100
10     Cl10   -4.2681   -1.3161    0.1927 Cl       1 ZINC000036294079   -0.0600
11     C11    -1.2787   -2.0744    0.2636 C.3      1 ZINC000036294079   -0.1100
12     C12    -0.5743   -2.4362    1.5722 C.3      1 ZINC000036294079   -0.1200
13     C13    -1.4012   -1.9417    2.7602 C.3      1 ZINC000036294079   -0.1100
14     C14    -1.4827   -0.4121    2.7221 C.3      1 ZINC000036294079   -0.1600
15     C15    -2.0193    0.0075    1.3715 C.2      1 ZINC000036294079    0.3800
16     O16    -2.9534    0.7680    1.2853 O.2      1 ZINC000036294079   -0.4400
17     H17     0.9969    1.8521    0.0504 H        1 ZINC000036294079    0.0800
18     H18    -0.5643    1.8581   -0.8044 H        1 ZINC000036294079    0.0400
19     H19    -0.5236    1.7936    0.9739 H        1 ZINC000036294079    0.0600
20     H20     0.4453   -0.3200   -0.8390 H        1 ZINC000036294079    0.3500
21     H21    -0.5142    0.7099   -2.1045 H        1 ZINC000036294079    0.1300
22     H22    -1.8388    1.3085   -4.0920 H        1 ZINC000036294079    0.1300
23     H23    -4.2353    0.7533   -4.1881 H        1 ZINC000036294079    0.1300
24     H24    -5.3085   -0.4027   -2.2973 H        1 ZINC000036294079    0.1400
25     H25    -2.2862   -2.4904    0.2660 H        1 ZINC000036294079    0.0800
26     H26    -0.7180   -2.4841   -0.5765 H        1 ZINC000036294079    0.0800
27     H27    -0.4607   -3.5185    1.6352 H        1 ZINC000036294079    0.0700
28     H28     0.4096   -1.9678    1.5956 H        1 ZINC000036294079    0.0800
29     H29    -2.4058   -2.3609    2.7035 H        1 ZINC000036294079    0.0600
30     H30    -0.9272   -2.2575    3.6896 H        1 ZINC000036294079    0.0800
31     H31    -2.1527   -0.0615    3.5072 H        1 ZINC000036294079    0.0900
32     H32    -0.4891    0.0113    2.8689 H        1 ZINC000036294079    0.1000
@<TRIPOS>BOND
1     1     2     1
2     1     17    1
3     1     18    1
4     1     19    1
5     2     3     1
6     2     20    1
7     3     15    1
8     3     4     1
9     3     11    1
10    4     9     ar
11    4     5     ar
12    5     6     ar
13    5     21    1
14    6     7     ar
15    6     22    1
16    7     8     ar
17    7     23    1
18    8     9     ar
19    8     24    1
20    9     10    1
21    11    12    1
22    11    25    1
23    11    26    1
24    12    13    1
25    12    27    1
26    12    28    1
27    13    14    1
28    13    29    1
29    13    30    1
30    14    15    1
31    14    31    1
32    14    32    1
33    15    16    2
@<TRIPOS>SUBSTRUCTURE
1   ZINC000036294079 1     RESIDUE    1   A     ZIN   1

@<TRIPOS>MOLECULE
ZINC000036294079
33    34    1     0     0
SMALL
USER_CHARGES
@<TRIPOS>ATOM
1      C1      0.0293    1.4737   -0.0082 C.3      1 ZINC000036294079   -0.0700
2      N2      0.0074    0.0049    0.0021 N.4      1 ZINC000036294079   -0.4900
3      H3     -0.9437   -0.3166    0.1037 H        1 ZINC000036294079    0.4300
4      H4      0.3894   -0.3432   -0.8644 H        1 ZINC000036294079    0.4300
5      C5      0.8138   -0.4890    1.1262 C.3      1 ZINC000036294079    0.0600
6      C6      0.1507   -0.1163    2.4272 C.ar     1 ZINC000036294079   -0.1200
7      C7     -1.0948    0.4823    2.4213 C.ar     1 ZINC000036294079   -0.1300
8      C8     -1.7034    0.8244    3.6148 C.ar     1 ZINC000036294079   -0.0900
9      C9     -1.0662    0.5683    4.8144 C.ar     1 ZINC000036294079   -0.0800
10     C10     0.1798   -0.0304    4.8215 C.ar     1 ZINC000036294079   -0.0900
11     C11     0.7864   -0.3785    3.6279 C.ar     1 ZINC000036294079    0.0000
12     Cl12    2.3511   -1.1304    3.6360 Cl       1 ZINC000036294079   -0.0400
13     C13     0.9505   -2.0122    1.0315 C.3      1 ZINC000036294079   -0.1400
14     C14     1.7466   -2.3739   -0.2235 C.3      1 ZINC000036294079   -0.1300
15     C15     3.1679   -1.8194   -0.1138 C.3      1 ZINC000036294079   -0.1300
16     C16     3.1146   -0.2889   -0.0622 C.3      1 ZINC000036294079   -0.1700
17     C17     2.1962    0.1225    1.0671 C.2      1 ZINC000036294079    0.3500
18     O18     2.5571    0.9190    1.8999 O.2      1 ZINC000036294079   -0.3700
19     H19     1.0620    1.8215   -0.0327 H        1 ZINC000036294079    0.1200
20     H20    -0.4981    1.8388   -0.8895 H        1 ZINC000036294079    0.1400
21     H21    -0.4598    1.8507    0.8900 H        1 ZINC000036294079    0.1400
22     H22    -1.5929    0.6833    1.4843 H        1 ZINC000036294079    0.1300
23     H23    -2.6768    1.2922    3.6098 H        1 ZINC000036294079    0.1500
24     H24    -1.5417    0.8363    5.7463 H        1 ZINC000036294079    0.1500
25     H25     0.6775   -0.2305    5.7588 H        1 ZINC000036294079    0.1500
26     H26     1.4717   -2.3859    1.9129 H        1 ZINC000036294079    0.1200
27     H27    -0.0402   -2.4633    0.9762 H        1 ZINC000036294079    0.1100
28     H28     1.7877   -3.4583   -0.3265 H        1 ZINC000036294079    0.1100
29     H29     1.2573   -1.9462   -1.0986 H        1 ZINC000036294079    0.0700
30     H30     3.6366   -2.1977    0.7946 H        1 ZINC000036294079    0.0800
31     H31     3.7487   -2.1339   -0.9809 H        1 ZINC000036294079    0.1000
32     H32     4.1146    0.1064    0.1167 H        1 ZINC000036294079    0.1200
33     H33     2.7292    0.0961   -1.0063 H        1 ZINC000036294079    0.1100
@<TRIPOS>BOND
1     1     2     1
2     1     19    1
3     1     20    1
4     1     21    1
5     2     3     1
6     2     4     1
7     2     5     1
8     5     17    1
9     5     6     1
10    5     13    1
11    6     11    ar
12    6     7     ar
13    7     8     ar
14    7     22    1
15    8     9     ar
16    8     23    1
17    9     10    ar
18    9     24    1
19    10    11    ar
20    10    25    1
21    11    12    1
22    13    14    1
23    13    26    1
24    13    27    1
25    14    15    1
26    14    28    1
27    14    29    1
28    15    16    1
29    15    30    1
30    15    31    1
31    16    17    1
32    16    32    1
33    16    33    1
34    17    18    2
@<TRIPOS>SUBSTRUCTURE
1   ZINC000036294079 1     RESIDUE    1   A     ZIN   1
