@<TRIPOS>MOLECULE
ZINC000000388081
  18   18    0    0    0
SMALL
USER_CHARGES
NO_NAME
@<TRIPOS>ATOM
    1 N1       -0.0116     1.0048     0.0076 N.4    1 <0>      -0.6400
    2 H2        0.0021    -0.0041     0.0020 H      1 <0>       0.4400
    3 H3        0.9350     1.3541     0.0004 H      1 <0>       0.4300
    4 H4       -0.4996     1.3391    -0.8099 H      1 <0>       0.4400
    5 C5       -0.6992     1.4786     1.2162 C.3    1 <0>       0.0000
    6 C6       -0.7199     3.0084     1.2246 C.3    1 <0>      -0.0500
    7 C7       -1.4253     3.4944     2.4645 C.2    1 <0>      -0.0300
    8 C8       -0.9262     4.3535     3.3735 C.2    1 <0>      -0.0300
    9 N9       -1.8904     4.5220     4.3304 N.pl3  1 <0>      -0.5600
   10 C10      -2.9459     3.7594     3.9725 C.2    1 <0>       0.2100
   11 N11      -2.6625     3.1517     2.8530 N.2    1 <0>      -0.4900
   12 H12      -1.7218     1.1013     1.2239 H      1 <0>       0.1400
   13 H13      -0.1720     1.1175     2.0992 H      1 <0>       0.1300
   14 H14       0.3027     3.3857     1.2169 H      1 <0>       0.1000
   15 H15      -1.2471     3.3695     0.3415 H      1 <0>       0.1000
   16 H16       0.0478     4.8196     3.3520 H      1 <0>       0.1800
   17 H17      -1.8273     5.0841     5.1184 H      1 <0>       0.4300
   18 H18      -3.8726     3.6705     4.5199 H      1 <0>       0.2200
@<TRIPOS>BOND
   1    1    2 1
   2    1    3 1
   3    1    4 1
   4    1    5 1
   5    5    6 1
   6    5   12 1
   7    5   13 1
   8    6    7 1
   9    6   14 1
  10    6   15 1
  11    7   11 1
  12    7    8 2
  13    8    9 1
  14    8   16 1
  15    9   10 1
  16    9   17 1
  17   10   11 2
  18   10   18 1

@<TRIPOS>MOLECULE
ZINC000000388081
  19   19    0    0    0
SMALL
USER_CHARGES
NO_NAME
@<TRIPOS>ATOM
    1 N1       -0.0116     1.0048     0.0076 N.4    1 <0>      -0.6400
    2 H2        0.0021    -0.0041     0.0020 H      1 <0>       0.4500
    3 H3        0.9350     1.3541     0.0004 H      1 <0>       0.4400
    4 H4       -0.4996     1.3391    -0.8099 H      1 <0>       0.4400
    5 C5       -0.6992     1.4786     1.2162 C.3    1 <0>      -0.0100
    6 C6       -0.7199     3.0084     1.2246 C.3    1 <0>      -0.0900
    7 C7       -1.4253     3.4944     2.4645 C.2    1 <0>       0.0300
    8 C8       -2.7536     3.6487     2.6240 C.2    1 <0>       0.0300
    9 N9       -2.9724     4.1001     3.8680 N.pl3  1 <0>      -0.4700
   10 H10      -3.8424     4.2975     4.2487 H      1 <0>       0.4800
   11 C11      -1.8302     4.2313     4.4853 C.cat  1 <0>       0.3400
   12 N12      -0.8395     3.8582     3.6469 N.pl3  1 <0>      -0.5100
   13 H13      -1.7218     1.1013     1.2239 H      1 <0>       0.1400
   14 H14      -0.1720     1.1175     2.0992 H      1 <0>       0.1400
   15 H15       0.3027     3.3857     1.2169 H      1 <0>       0.1200
   16 H16      -1.2471     3.3695     0.3415 H      1 <0>       0.1400
   17 H17      -3.5100     3.4448     1.8806 H      1 <0>       0.2300
   18 H18      -1.6992     4.5771     5.5001 H      1 <0>       0.2700
   19 H19       0.1103     3.8548     3.8437 H      1 <0>       0.4700
@<TRIPOS>BOND
   1    1    2 1
   2    1    3 1
   3    1    4 1
   4    1    5 1
   5    5    6 1
   6    5   13 1
   7    5   14 1
   8    6    7 1
   9    6   15 1
  10    6   16 1
  11    7   12 1
  12    7    8 2
  13    8    9 1
  14    8   17 1
  15    9   10 1
  16    9   11 ar
  17   11   12 ar
  18   11   18 1
  19   12   19 1

@<TRIPOS>MOLECULE
ZINC000000388081
  19   19    0    0    0
SMALL
USER_CHARGES
NO_NAME
@<TRIPOS>ATOM
    1 N1       -0.0116     1.0048     0.0076 N.4    1 <0>      -0.6400
    2 H2        0.0021    -0.0041     0.0020 H      1 <0>       0.4400
    3 H3        0.9350     1.3541     0.0004 H      1 <0>       0.4500
    4 H4       -0.4996     1.3391    -0.8099 H      1 <0>       0.4400
    5 C5       -0.6992     1.4786     1.2162 C.3    1 <0>      -0.0100
    6 C6       -2.1346     0.9490     1.2270 C.3    1 <0>      -0.0900
    7 C7       -2.8400     1.4350     2.4669 C.2    1 <0>       0.0000
    8 C8       -2.7964     0.8543     3.6812 C.2    1 <0>       0.0600
    9 N9       -3.5716     1.6166     4.5128 N.pl3  1 <0>      -0.5100
   10 C10      -4.0624     2.6372     3.7772 C.cat  1 <0>       0.3400
   11 N11      -3.6165     2.5250     2.5559 N.pl3  1 <0>      -0.4800
   12 H12      -3.8192     3.1311     1.8262 H      1 <0>       0.4700
   13 H13      -0.1720     1.1175     2.0992 H      1 <0>       0.1400
   14 H14      -0.7140     2.5685     1.2222 H      1 <0>       0.1400
   15 H15      -2.6618     1.3101     0.3440 H      1 <0>       0.1200
   16 H16      -2.1198    -0.1409     1.2210 H      1 <0>       0.1300
   17 H17      -2.2542    -0.0410     3.9476 H      1 <0>       0.2300
   18 H18      -3.7376     1.4540     5.4546 H      1 <0>       0.4800
   19 H19      -4.7127     3.4192     4.1405 H      1 <0>       0.2700
@<TRIPOS>BOND
   1    1    2 1
   2    1    3 1
   3    1    4 1
   4    1    5 1
   5    5    6 1
   6    5   13 1
   7    5   14 1
   8    6    7 1
   9    6   15 1
  10    6   16 1
  11    7   11 1
  12    7    8 2
  13    8    9 1
  14    8   17 1
  15    9   10 ar
  16    9   18 1
  17   10   11 ar
  18   10   19 1
  19   11   12 1
