@<TRIPOS>MOLECULE
ZINC000007997897
  44   46    0    0    0
SMALL
USER_CHARGES
NO_NAME
@<TRIPOS>ATOM
    1 C1        0.1745     1.2415     0.5525 C.3    1 <0>      -0.0500
    2 N2       -0.2111    -0.1760     0.5462 N.4    1 <0>      -0.3800
    3 H3       -1.0967    -0.2857     1.0172 H      1 <0>       0.4200
    4 C4        0.8143    -0.9655     1.2413 C.3    1 <0>       0.0200
    5 C5        0.8536    -0.5694     2.6948 C.2    1 <0>      -0.2400
    6 C6        0.7568    -1.4966     3.6373 C.2    1 <0>      -0.0200
    7 C7        0.7988    -2.9284     3.2726 C.ar   1 <0>      -0.1000
    8 C8        1.7025    -3.3800     2.3101 C.ar   1 <0>      -0.1200
    9 C9        1.7366    -4.7178     1.9741 C.ar   1 <0>      -0.1200
   10 C10       0.8771    -5.6106     2.5889 C.ar   1 <0>      -0.1000
   11 C11      -0.0215    -5.1692     3.5436 C.ar   1 <0>      -0.1100
   12 C12      -0.0611    -3.8351     3.8934 C.ar   1 <0>      -0.0900
   13 C13      -0.3329    -0.6442    -0.8408 C.3    1 <0>       0.0400
   14 C14      -1.4812     0.0649    -1.5114 C.ar   1 <0>      -0.1600
   15 C15      -2.8059    -0.2855    -1.2004 C.ar   1 <0>      -0.0300
   16 C16      -3.0937    -1.2948    -0.2656 C.ar   1 <0>      -0.1500
   17 C17      -4.3891    -1.6070     0.0108 C.ar   1 <0>      -0.0800
   18 C18      -5.4383    -0.9406    -0.6200 C.ar   1 <0>      -0.1200
   19 C19      -5.1978     0.0416    -1.5307 C.ar   1 <0>      -0.0800
   20 C20      -3.8728     0.3926    -1.8415 C.ar   1 <0>      -0.0600
   21 C21      -3.5852     1.4017    -2.7758 C.ar   1 <0>      -0.0600
   22 C22      -2.2894     1.7149    -3.0514 C.ar   1 <0>      -0.1300
   23 C23      -1.2406     1.0519    -2.4174 C.ar   1 <0>      -0.0600
   24 H24       1.1698     1.3492     0.1214 H      1 <0>       0.1200
   25 H25      -0.5407     1.8152    -0.0369 H      1 <0>       0.1200
   26 H26       0.1805     1.6119     1.5776 H      1 <0>       0.1200
   27 H27       0.5738    -2.0255     1.1600 H      1 <0>       0.1400
   28 H28       1.7872    -0.7777     0.7871 H      1 <0>       0.1300
   29 H29       0.9607     0.4698     2.9686 H      1 <0>       0.1400
   30 H30       0.6473    -1.2059     4.6716 H      1 <0>       0.1400
   31 H31       2.3735    -2.6839     1.8289 H      1 <0>       0.1300
   32 H32       2.4356    -5.0686     1.2292 H      1 <0>       0.1300
   33 H33       0.9075    -6.6567     2.3221 H      1 <0>       0.1300
   34 H34      -0.6904    -5.8711     4.0194 H      1 <0>       0.1300
   35 H35      -0.7629    -3.4918     4.6391 H      1 <0>       0.1300
   36 H36       0.5905    -0.4299    -1.3790 H      1 <0>       0.1400
   37 H37      -0.5160    -1.7187    -0.8468 H      1 <0>       0.1400
   38 H38      -2.2910    -1.8202     0.2304 H      1 <0>       0.1200
   39 H39      -4.6075    -2.3830     0.7295 H      1 <0>       0.1300
   40 H40      -6.4574    -1.2081    -0.3828 H      1 <0>       0.1300
   41 H41      -6.0209     0.5489    -2.0121 H      1 <0>       0.1400
   42 H42      -4.3879     1.9259    -3.2730 H      1 <0>       0.1400
   43 H43      -2.0710     2.4908    -3.7702 H      1 <0>       0.1400
   44 H44      -0.2215     1.3199    -2.6539 H      1 <0>       0.1300
@<TRIPOS>BOND
   1    1    2 1
   2    1   24 1
   3    1   25 1
   4    1   26 1
   5    2    3 1
   6    2    4 1
   7    2   13 1
   8    4    5 1
   9    4   27 1
  10    4   28 1
  11    5    6 2
  12    5   29 1
  13    6    7 1
  14    6   30 1
  15    7   12 ar
  16    7    8 ar
  17    8    9 ar
  18    8   31 1
  19    9   10 ar
  20    9   32 1
  21   10   11 ar
  22   10   33 1
  23   11   12 ar
  24   11   34 1
  25   12   35 1
  26   13   14 1
  27   13   36 1
  28   13   37 1
  29   14   23 ar
  30   14   15 ar
  31   15   20 ar
  32   15   16 ar
  33   16   17 ar
  34   16   38 1
  35   17   18 ar
  36   17   39 1
  37   18   19 ar
  38   18   40 1
  39   19   20 ar
  40   19   41 1
  41   20   21 ar
  42   21   22 ar
  43   21   42 1
  44   22   23 ar
  45   22   43 1
  46   23   44 1

@<TRIPOS>MOLECULE
ZINC000007997897
  44   46    0    0    0
SMALL
USER_CHARGES
NO_NAME
@<TRIPOS>ATOM
    1 C1       -0.4263     1.5136     0.0224 C.3    1 <0>      -0.0500
    2 N2       -0.2025     0.0618     0.0324 N.4    1 <0>      -0.3800
    3 H3       -1.0895    -0.4156    -0.0245 H      1 <0>       0.4200
    4 C4        0.6302    -0.3132    -1.1182 C.3    1 <0>       0.0100
    5 C5       -0.1214    -0.0345    -2.3943 C.2    1 <0>      -0.2300
    6 C6        0.4386     0.6976    -3.3470 C.2    1 <0>      -0.0300
    7 C7        1.8593     1.0909    -3.2380 C.ar   1 <0>      -0.1000
    8 C8        2.7963     0.1960    -2.7202 C.ar   1 <0>      -0.1200
    9 C9        4.1209     0.5693    -2.6211 C.ar   1 <0>      -0.1200
   10 C10       4.5206     1.8279    -3.0333 C.ar   1 <0>      -0.1000
   11 C11       3.5965     2.7200    -3.5472 C.ar   1 <0>      -0.1100
   12 C12       2.2701     2.3566    -3.6578 C.ar   1 <0>      -0.0900
   13 C13       0.4801    -0.3199     1.2759 C.3    1 <0>       0.0400
   14 C14      -0.4251    -0.0479     2.4497 C.ar   1 <0>      -0.1600
   15 C15      -1.4449    -0.9560     2.7803 C.ar   1 <0>      -0.0300
   16 C16      -1.6467    -2.1302     2.0346 C.ar   1 <0>      -0.1500
   17 C17      -2.6444    -2.9869     2.3846 C.ar   1 <0>      -0.0800
   18 C18      -3.4722    -2.7182     3.4733 C.ar   1 <0>      -0.1200
   19 C19      -3.3069    -1.5913     4.2181 C.ar   1 <0>      -0.0900
   20 C20      -2.2864    -0.6830     3.8878 C.ar   1 <0>      -0.0600
   21 C21      -2.0847     0.4906     4.6333 C.ar   1 <0>      -0.0600
   22 C22      -1.0858     1.3470     4.2841 C.ar   1 <0>      -0.1300
   23 C23      -0.2554     1.0761     3.1986 C.ar   1 <0>      -0.0600
   24 H24       0.5320     2.0294     0.0839 H      1 <0>       0.1200
   25 H25      -0.9327     1.7968    -0.9003 H      1 <0>       0.1200
   26 H26      -1.0441     1.7919     0.8762 H      1 <0>       0.1200
   27 H27       1.5518     0.2687    -1.1049 H      1 <0>       0.1400
   28 H28       0.8701    -1.3750    -1.0624 H      1 <0>       0.1300
   29 H29      -1.1164    -0.4312    -2.5327 H      1 <0>       0.1400
   30 H30      -0.1431     1.0067    -4.2029 H      1 <0>       0.1400
   31 H31       2.4853    -0.7866    -2.3974 H      1 <0>       0.1300
   32 H32       4.8471    -0.1225    -2.2205 H      1 <0>       0.1300
   33 H33       5.5586     2.1154    -2.9533 H      1 <0>       0.1300
   34 H34       3.9148     3.7014    -3.8666 H      1 <0>       0.1300
   35 H35       1.5496     3.0538    -4.0594 H      1 <0>       0.1300
   36 H36       0.7255    -1.3814     1.2446 H      1 <0>       0.1400
   37 H37       1.3960     0.2618     1.3810 H      1 <0>       0.1400
   38 H38      -1.0135    -2.3512     1.1881 H      1 <0>       0.1200
   39 H39      -2.7973    -3.8885     1.8099 H      1 <0>       0.1300
   40 H40      -4.2569    -3.4146     3.7295 H      1 <0>       0.1300
   41 H41      -3.9564    -1.3959     5.0585 H      1 <0>       0.1400
   42 H42      -2.7189     0.7124     5.4788 H      1 <0>       0.1400
   43 H43      -0.9331     2.2487     4.8586 H      1 <0>       0.1400
   44 H44       0.5299     1.7721     2.9429 H      1 <0>       0.1300
@<TRIPOS>BOND
   1    1    2 1
   2    1   24 1
   3    1   25 1
   4    1   26 1
   5    2    3 1
   6    2    4 1
   7    2   13 1
   8    4    5 1
   9    4   27 1
  10    4   28 1
  11    5    6 2
  12    5   29 1
  13    6    7 1
  14    6   30 1
  15    7   12 ar
  16    7    8 ar
  17    8    9 ar
  18    8   31 1
  19    9   10 ar
  20    9   32 1
  21   10   11 ar
  22   10   33 1
  23   11   12 ar
  24   11   34 1
  25   12   35 1
  26   13   14 1
  27   13   36 1
  28   13   37 1
  29   14   23 ar
  30   14   15 ar
  31   15   20 ar
  32   15   16 ar
  33   16   17 ar
  34   16   38 1
  35   17   18 ar
  36   17   39 1
  37   18   19 ar
  38   18   40 1
  39   19   20 ar
  40   19   41 1
  41   20   21 ar
  42   21   22 ar
  43   21   42 1
  44   22   23 ar
  45   22   43 1
  46   23   44 1

@<TRIPOS>MOLECULE
ZINC000007997897
  43   45    0    0    0
SMALL
USER_CHARGES
NO_NAME
@<TRIPOS>ATOM
    1 C1        0.1756     1.5239    -0.3518 C.3    1 <0>       0.0200
    2 N2        0.0777     0.0673    -0.1883 N.3    1 <0>      -0.5300
    3 C3        0.6610    -0.3593     1.0906 C.3    1 <0>       0.0700
    4 C4        2.1452    -0.0990     1.0775 C.2    1 <0>      -0.1300
    5 C5        2.7055     0.5929     2.0597 C.2    1 <0>      -0.1300
    6 C6        1.9132     0.9558     3.2536 C.ar   1 <0>      -0.0600
    7 C7        0.9882     0.0542     3.7812 C.ar   1 <0>      -0.1100
    8 C8        0.2517     0.3990     4.8958 C.ar   1 <0>      -0.1200
    9 C9        0.4284     1.6359     5.4898 C.ar   1 <0>      -0.1200
   10 C10       1.3435     2.5346     4.9712 C.ar   1 <0>      -0.1200
   11 C11       2.0911     2.1993     3.8611 C.ar   1 <0>      -0.1100
   12 C12      -1.3153    -0.3834    -0.3081 C.3    1 <0>       0.0900
   13 C13      -1.8006    -0.1472    -1.7151 C.ar   1 <0>      -0.0600
   14 C14      -1.4650    -1.0492    -2.7387 C.ar   1 <0>      -0.0300
   15 C15      -0.6770    -2.1843    -2.4819 C.ar   1 <0>      -0.0900
   16 C16      -0.3722    -3.0363    -3.4983 C.ar   1 <0>      -0.1200
   17 C17      -0.8296    -2.8009    -4.7938 C.ar   1 <0>      -0.1100
   18 C18      -1.5943    -1.7122    -5.0799 C.ar   1 <0>      -0.1100
   19 C19      -1.9306    -0.8101    -4.0560 C.ar   1 <0>      -0.0500
   20 C20      -2.7185     0.3245    -4.3127 C.ar   1 <0>      -0.1100
   21 C21      -3.0245     1.1761    -3.2958 C.ar   1 <0>      -0.1200
   22 C22      -2.5710     0.9384    -1.9999 C.ar   1 <0>      -0.1100
   23 H23       1.2237     1.8224    -0.3288 H      1 <0>       0.0700
   24 H24      -0.2635     1.8126    -1.3067 H      1 <0>       0.0700
   25 H25      -0.3607     2.0173     0.4588 H      1 <0>       0.0200
   26 H26       0.2010     0.2010     1.9046 H      1 <0>       0.0600
   27 H27       0.4801    -1.4245     1.2351 H      1 <0>       0.0800
   28 H28       2.7525    -0.4761     0.2679 H      1 <0>       0.1200
   29 H29       3.7410     0.8914     1.9876 H      1 <0>       0.1200
   30 H30       0.8488    -0.9115     3.3180 H      1 <0>       0.1200
   31 H31      -0.4646    -0.2979     5.3052 H      1 <0>       0.1200
   32 H32      -0.1509     1.9013     6.3618 H      1 <0>       0.1200
   33 H33       1.4763     3.4989     5.4391 H      1 <0>       0.1200
   34 H34       2.8054     2.9016     3.4574 H      1 <0>       0.1200
   35 H35      -1.3742    -1.4471    -0.0772 H      1 <0>       0.0900
   36 H36      -1.9391     0.1749     0.3900 H      1 <0>       0.0500
   37 H37      -0.3149    -2.3791    -1.4832 H      1 <0>       0.1300
   38 H38       0.2335    -3.9078    -3.2983 H      1 <0>       0.1200
   39 H39      -0.5729    -3.4928    -5.5824 H      1 <0>       0.1200
   40 H40      -1.9410    -1.5424    -6.0886 H      1 <0>       0.1300
   41 H41      -3.0792     0.5202    -5.3117 H      1 <0>       0.1300
   42 H42      -3.6300     2.0477    -3.4959 H      1 <0>       0.1200
   43 H43      -2.8284     1.6297    -1.2111 H      1 <0>       0.1200
@<TRIPOS>BOND
   1    1    2 1
   2    1   23 1
   3    1   24 1
   4    1   25 1
   5    2    3 1
   6    2   12 1
   7    3    4 1
   8    3   26 1
   9    3   27 1
  10    4    5 2
  11    4   28 1
  12    5    6 1
  13    5   29 1
  14    6   11 ar
  15    6    7 ar
  16    7    8 ar
  17    7   30 1
  18    8    9 ar
  19    8   31 1
  20    9   10 ar
  21    9   32 1
  22   10   11 ar
  23   10   33 1
  24   11   34 1
  25   12   13 1
  26   12   35 1
  27   12   36 1
  28   13   22 ar
  29   13   14 ar
  30   14   19 ar
  31   14   15 ar
  32   15   16 ar
  33   15   37 1
  34   16   17 ar
  35   16   38 1
  36   17   18 ar
  37   17   39 1
  38   18   19 ar
  39   18   40 1
  40   19   20 ar
  41   20   21 ar
  42   20   41 1
  43   21   22 ar
  44   21   42 1
  45   22   43 1
