@<TRIPOS>MOLECULE
ZINC000001280665
44    48    1     0     0
SMALL
USER_CHARGES
@<TRIPOS>ATOM
1      C1     -1.1372    1.3599   -1.3910 C.3      1 ZINC000001280665    0.0200
2      O2     -0.9147   -0.0274   -1.1304 O.3      1 ZINC000001280665   -0.3000
3      C3     -0.1431   -0.7068   -2.0206 C.ar     1 ZINC000001280665    0.1300
4      C4      0.4104   -0.0772   -3.1332 C.ar     1 ZINC000001280665   -0.1700
5      C5      1.1886   -0.7356   -4.0718 C.ar     1 ZINC000001280665   -0.0900
6      C6      1.4649   -2.0831   -3.9248 C.ar     1 ZINC000001280665   -0.0900
7      C7      2.1962   -2.9213   -4.9225 C.3      1 ZINC000001280665   -0.0900
8      C8      2.3547   -4.3716   -4.4994 C.3      1 ZINC000001280665    0.0400
9      H9      2.4083   -4.9783   -5.4034 H        1 ZINC000001280665    0.1400
10     C10     1.2073   -4.9117   -3.6416 C.3      1 ZINC000001280665   -0.0800
11     H11     1.3860   -5.9621   -3.4119 H        1 ZINC000001280665    0.1100
12     C12    -0.1177   -4.7692   -4.3885 C.3      1 ZINC000001280665   -0.1100
13     C13    -1.2355   -5.3484   -3.5189 C.3      1 ZINC000001280665   -0.1700
14     C14    -1.2624   -4.6586   -2.1883 C.2      1 ZINC000001280665    0.3300
15     O15    -2.3341   -4.3871   -1.7023 O.2      1 ZINC000001280665   -0.4100
16     C16    -0.0198   -4.2892   -1.4322 C.3      1 ZINC000001280665    0.0600
17     H17     0.1867   -5.0030   -0.6347 H        1 ZINC000001280665    0.1600
18     O18    -0.2164   -2.9405   -0.9081 O.3      1 ZINC000001280665   -0.2600
19     C19     0.1354   -2.0688   -1.8570 C.ar     1 ZINC000001280665    0.0900
20     C20     0.9567   -2.6783   -2.7934 C.ar     1 ZINC000001280665   -0.1700
21     C21     1.1808   -4.1058   -2.3530 C.3      1 ZINC000001280665   -0.0500
22     C22     2.5127   -4.2152   -1.6147 C.3      1 ZINC000001280665   -0.1300
23     C23     3.6272   -3.7277   -2.5481 C.3      1 ZINC000001280665   -0.0100
24     N24     3.6125   -4.5547   -3.7648 N.4      1 ZINC000001280665   -0.3800
25     H25     3.7516   -5.5214   -3.5113 H        1 ZINC000001280665    0.4300
26     C26     4.7004   -4.1264   -4.6542 C.3      1 ZINC000001280665   -0.0600
27     H27    -0.1816    1.8839   -1.4100 H        1 ZINC000001280665    0.0600
28     H28    -1.6331    1.4736   -2.3550 H        1 ZINC000001280665    0.0600
29     H29    -1.7666    1.7805   -0.6067 H        1 ZINC000001280665    0.1100
30     H30     0.2232    0.9774   -3.2714 H        1 ZINC000001280665    0.1400
31     H31     1.5803   -0.1953   -4.9209 H        1 ZINC000001280665    0.1400
32     H32     1.6538   -2.8911   -5.8675 H        1 ZINC000001280665    0.1200
33     H33     3.1864   -2.4933   -5.0784 H        1 ZINC000001280665    0.1000
34     H34    -0.3156   -3.7154   -4.5843 H        1 ZINC000001280665    0.0900
35     H35    -0.0671   -5.3153   -5.3304 H        1 ZINC000001280665    0.1000
36     H36    -2.1933   -5.2062   -4.0193 H        1 ZINC000001280665    0.1100
37     H37    -1.0622   -6.4142   -3.3700 H        1 ZINC000001280665    0.1100
38     H38     2.4871   -3.5943   -0.7192 H        1 ZINC000001280665    0.1200
39     H39     2.6942   -5.2539   -1.3387 H        1 ZINC000001280665    0.1000
40     H40     3.4608   -2.6788   -2.7933 H        1 ZINC000001280665    0.1400
41     H41     4.5898   -3.8324   -2.0477 H        1 ZINC000001280665    0.1400
42     H42     5.6592   -4.3952   -4.2110 H        1 ZINC000001280665    0.1300
43     H43     4.5955   -4.6201   -5.6203 H        1 ZINC000001280665    0.1300
44     H44     4.6536   -3.0461   -4.7913 H        1 ZINC000001280665    0.1300
@<TRIPOS>BOND
1     1     2     1
2     1     27    1
3     1     28    1
4     1     29    1
5     2     3     1
6     3     19    ar
7     3     4     ar
8     4     5     ar
9     4     30    1
10    5     6     ar
11    5     31    1
12    6     20    ar
13    6     7     1
14    7     8     1
15    7     32    1
16    7     33    1
17    8     9     1
18    8     24    1
19    8     10    1
20    10    11    1
21    10    21    1
22    10    12    1
23    12    13    1
24    12    34    1
25    12    35    1
26    13    14    1
27    13    36    1
28    13    37    1
29    14    15    2
30    14    16    1
31    16    17    1
32    16    21    1
33    16    18    1
34    18    19    1
35    19    20    ar
36    20    21    1
37    21    22    1
38    22    23    1
39    22    38    1
40    22    39    1
41    23    24    1
42    23    40    1
43    23    41    1
44    24    25    1
45    24    26    1
46    26    42    1
47    26    43    1
48    26    44    1
@<TRIPOS>SUBSTRUCTURE
1   ZINC000001280665 1     RESIDUE    1   A     ZIN   1

@<TRIPOS>MOLECULE
ZINC000001280665
44    48    1     0     0
SMALL
USER_CHARGES
@<TRIPOS>ATOM
1      C1     -0.0173    1.4248    0.0099 C.3      1 ZINC000001280665    0.0200
2      O2      0.0021   -0.0041    0.0020 O.3      1 ZINC000001280665   -0.3000
3      C3      0.6062   -0.6075   -1.0564 C.ar     1 ZINC000001280665    0.1300
4      C4      1.1854    0.1340   -2.0837 C.ar     1 ZINC000001280665   -0.1700
5      C5      1.7965   -0.4410   -3.1865 C.ar     1 ZINC000001280665   -0.0900
6      C6      1.8685   -1.8175   -3.3033 C.ar     1 ZINC000001280665   -0.0900
7      C7      2.4021   -2.5495   -4.4917 C.3      1 ZINC000001280665   -0.0800
8      C8      2.3580   -4.0609   -4.3458 C.3      1 ZINC000001280665    0.0400
9      H9      2.2645   -4.4892   -5.3437 H        1 ZINC000001280665    0.1400
10     C10     1.1923   -4.5835   -3.5020 C.3      1 ZINC000001280665   -0.0800
11     H11     1.2189   -5.6729   -3.4770 H        1 ZINC000001280665    0.1100
12     C12    -0.1356   -4.1174   -4.0964 C.3      1 ZINC000001280665   -0.1100
13     C13    -1.2775   -4.6844   -3.2505 C.3      1 ZINC000001280665   -0.1600
14     C14    -1.1202   -4.2588   -1.8218 C.2      1 ZINC000001280665    0.3300
15     O15    -2.1068   -3.9337   -1.2060 O.2      1 ZINC000001280665   -0.4100
16     C16     0.2063   -4.2174   -1.1211 C.3      1 ZINC000001280665    0.0600
17     H17     0.3453   -5.0896   -0.4824 H        1 ZINC000001280665    0.1600
18     O18     0.2519   -2.9764   -0.3527 O.3      1 ZINC000001280665   -0.2600
19     C19     0.6791   -2.0016   -1.1597 C.ar     1 ZINC000001280665    0.0900
20     C20     1.3404   -2.5355   -2.2553 C.ar     1 ZINC000001280665   -0.1700
21     C21     1.3655   -4.0373   -2.0941 C.3      1 ZINC000001280665   -0.0500
22     C22     2.7048   -4.4706   -1.5028 C.3      1 ZINC000001280665   -0.1300
23     C23     3.8256   -3.9804   -2.4272 C.3      1 ZINC000001280665   -0.0100
24     N24     3.6125   -4.5547   -3.7648 N.4      1 ZINC000001280665   -0.3800
25     H25     4.3601   -4.2611   -4.3755 H        1 ZINC000001280665    0.4300
26     C26     3.6143   -6.0205   -3.6679 C.3      1 ZINC000001280665   -0.0600
27     H27     1.0053    1.8021    0.0021 H        1 ZINC000001280665    0.0600
28     H28    -0.5445    1.7859   -0.8732 H        1 ZINC000001280665    0.0600
29     H29    -0.5275    1.7763    0.9067 H        1 ZINC000001280665    0.1100
30     H30     1.1563    1.2115   -2.0175 H        1 ZINC000001280665    0.1400
31     H31     2.2175    0.1875   -3.9573 H        1 ZINC000001280665    0.1400
32     H32     1.8172   -2.2665   -5.3669 H        1 ZINC000001280665    0.1200
33     H33     3.4360   -2.2448   -4.6535 H        1 ZINC000001280665    0.1000
34     H34    -0.1787   -3.0283   -4.0859 H        1 ZINC000001280665    0.0900
35     H35    -0.2248   -4.4792   -5.1207 H        1 ZINC000001280665    0.1000
36     H36    -2.2290   -4.3167   -3.6346 H        1 ZINC000001280665    0.1100
37     H37    -1.2633   -5.7728   -3.3071 H        1 ZINC000001280665    0.1100
38     H38     2.8276   -4.0309   -0.5130 H        1 ZINC000001280665    0.1200
39     H39     2.7387   -5.5577   -1.4306 H        1 ZINC000001280665    0.1000
40     H40     3.8099   -2.8913   -2.4687 H        1 ZINC000001280665    0.1400
41     H41     4.7876   -4.3123   -2.0369 H        1 ZINC000001280665    0.1400
42     H42     2.8144   -6.3416   -3.0008 H        1 ZINC000001280665    0.1200
43     H43     3.4567   -6.4502   -4.6572 H        1 ZINC000001280665    0.1300
44     H44     4.5732   -6.3575   -3.2740 H        1 ZINC000001280665    0.1300
@<TRIPOS>BOND
1     1     2     1
2     1     27    1
3     1     28    1
4     1     29    1
5     2     3     1
6     3     19    ar
7     3     4     ar
8     4     5     ar
9     4     30    1
10    5     6     ar
11    5     31    1
12    6     20    ar
13    6     7     1
14    7     8     1
15    7     32    1
16    7     33    1
17    8     9     1
18    8     24    1
19    8     10    1
20    10    11    1
21    10    21    1
22    10    12    1
23    12    13    1
24    12    34    1
25    12    35    1
26    13    14    1
27    13    36    1
28    13    37    1
29    14    15    2
30    14    16    1
31    16    17    1
32    16    21    1
33    16    18    1
34    18    19    1
35    19    20    ar
36    20    21    1
37    21    22    1
38    22    23    1
39    22    38    1
40    22    39    1
41    23    24    1
42    23    40    1
43    23    41    1
44    24    25    1
45    24    26    1
46    26    42    1
47    26    43    1
48    26    44    1
@<TRIPOS>SUBSTRUCTURE
1   ZINC000001280665 1     RESIDUE    1   A     ZIN   1

@<TRIPOS>MOLECULE
ZINC000001280665
43    47    1     0     0
SMALL
USER_CHARGES
@<TRIPOS>ATOM
1      C1     -0.0173    1.4248    0.0099 C.3      1 ZINC000001280665    0.0300
2      O2      0.0021   -0.0041    0.0020 O.3      1 ZINC000001280665   -0.3100
3      C3      0.6062   -0.6075   -1.0564 C.ar     1 ZINC000001280665    0.1100
4      C4      1.1853    0.1340   -2.0837 C.ar     1 ZINC000001280665   -0.1700
5      C5      1.7961   -0.4413   -3.1864 C.ar     1 ZINC000001280665   -0.1100
6      C6      1.8685   -1.8179   -3.3029 C.ar     1 ZINC000001280665   -0.0600
7      C7      2.4002   -2.5491   -4.4925 C.3      1 ZINC000001280665   -0.1100
8      C8      2.3645   -4.0609   -4.3426 C.3      1 ZINC000001280665    0.0900
9      H9      2.2809   -4.4952   -5.3389 H        1 ZINC000001280665    0.0900
10     C10     1.1981   -4.5858   -3.5002 C.3      1 ZINC000001280665   -0.0600
11     H11     1.2274   -5.6750   -3.4738 H        1 ZINC000001280665    0.1000
12     C12    -0.1285   -4.1236   -4.1012 C.3      1 ZINC000001280665   -0.1100
13     C13    -1.2733   -4.6896   -3.2588 C.3      1 ZINC000001280665   -0.1600
14     C14    -1.1226   -4.2587   -1.8309 C.2      1 ZINC000001280665    0.3400
15     O15    -2.1117   -3.9303   -1.2210 O.2      1 ZINC000001280665   -0.4300
16     C16     0.2005   -4.2172   -1.1244 C.3      1 ZINC000001280665    0.0500
17     H17     0.3365   -5.0895   -0.4851 H        1 ZINC000001280665    0.1500
18     O18     0.2442   -2.9766   -0.3556 O.3      1 ZINC000001280665   -0.2600
19     C19     0.6791   -2.0016   -1.1596 C.ar     1 ZINC000001280665    0.0800
20     C20     1.3417   -2.5360   -2.2544 C.ar     1 ZINC000001280665   -0.1500
21     C21     1.3652   -4.0373   -2.0927 C.3      1 ZINC000001280665   -0.0400
22     C22     2.6984   -4.4740   -1.4910 C.3      1 ZINC000001280665   -0.1000
23     C23     3.8312   -3.9860   -2.4013 C.3      1 ZINC000001280665    0.0500
24     N24     3.6194   -4.5397   -3.7470 N.3      1 ZINC000001280665   -0.5300
25     C25     4.7368   -4.1997   -4.6380 C.3      1 ZINC000001280665    0.0100
26     H26     1.0053    1.8021    0.0021 H        1 ZINC000001280665    0.0600
27     H27    -0.5445    1.7859   -0.8732 H        1 ZINC000001280665    0.0600
28     H28    -0.5275    1.7763    0.9067 H        1 ZINC000001280665    0.1000
29     H29     1.1565    1.2116   -2.0174 H        1 ZINC000001280665    0.1300
30     H30     2.2167    0.1870   -3.9576 H        1 ZINC000001280665    0.1300
31     H31     1.8096   -2.2711   -5.3655 H        1 ZINC000001280665    0.0800
32     H32     3.4318   -2.2395   -4.6599 H        1 ZINC000001280665    0.0800
33     H33    -0.1733   -3.0346   -4.0942 H        1 ZINC000001280665    0.0700
34     H34    -0.2129   -4.4885   -5.1249 H        1 ZINC000001280665    0.0900
35     H35    -2.2236   -4.3245   -3.6483 H        1 ZINC000001280665    0.1000
36     H36    -1.2572   -5.7782   -3.3116 H        1 ZINC000001280665    0.1100
37     H37     2.8125   -4.0371   -0.4989 H        1 ZINC000001280665    0.0800
38     H38     2.7289   -5.5613   -1.4200 H        1 ZINC000001280665    0.0900
39     H39     3.8294   -2.8963   -2.4296 H        1 ZINC000001280665    0.0500
40     H40     4.7866   -4.3357   -2.0102 H        1 ZINC000001280665    0.0800
41     H41     5.6499   -4.6683   -4.2708 H        1 ZINC000001280665    0.0700
42     H42     4.5223   -4.5608   -5.6439 H        1 ZINC000001280665    0.0700
43     H43     4.8673   -3.1178   -4.6605 H        1 ZINC000001280665    0.0300
@<TRIPOS>BOND
1     1     2     1
2     1     26    1
3     1     27    1
4     1     28    1
5     2     3     1
6     3     19    ar
7     3     4     ar
8     4     5     ar
9     4     29    1
10    5     6     ar
11    5     30    1
12    6     20    ar
13    6     7     1
14    7     8     1
15    7     31    1
16    7     32    1
17    8     9     1
18    8     24    1
19    8     10    1
20    10    11    1
21    10    21    1
22    10    12    1
23    12    13    1
24    12    33    1
25    12    34    1
26    13    14    1
27    13    35    1
28    13    36    1
29    14    15    2
30    14    16    1
31    16    17    1
32    16    21    1
33    16    18    1
34    18    19    1
35    19    20    ar
36    20    21    1
37    21    22    1
38    22    23    1
39    22    37    1
40    22    38    1
41    23    24    1
42    23    39    1
43    23    40    1
44    24    25    1
45    25    41    1
46    25    42    1
47    25    43    1
@<TRIPOS>SUBSTRUCTURE
1   ZINC000001280665 1     RESIDUE    1   A     ZIN   1
