@<TRIPOS>MOLECULE
ZINC000006094354
47    51    1     0     0
SMALL
USER_CHARGES
@<TRIPOS>ATOM
1      O1      0.1136    0.0385    0.6355 O.2      1 ZINC000006094354   -0.5300
2      C2      0.0348    1.2160    0.3444 C.2      1 ZINC000006094354    0.5700
3      C3     -1.2737    1.9036    0.3700 C.ar     1 ZINC000006094354   -0.1500
4      C4     -2.3651    1.3148    1.0044 C.ar     1 ZINC000006094354   -0.0600
5      C5     -3.5735    1.9812    1.0302 C.ar     1 ZINC000006094354   -0.1200
6      C6     -3.6943    3.2170    0.4289 C.ar     1 ZINC000006094354   -0.0800
7      C7     -2.6112    3.8120   -0.2133 C.ar     1 ZINC000006094354   -0.0800
8      C8     -1.4036    3.1554   -0.2414 C.ar     1 ZINC000006094354   -0.0400
9      C9     -0.2022    3.7424   -0.9367 C.3      1 ZINC000006094354   -0.0700
10     H10    -0.1588    3.3715   -1.9607 H        1 ZINC000006094354    0.1000
11     C11    -0.3302    5.2680   -0.9526 C.3      1 ZINC000006094354   -0.1100
12     C12    -1.6367    5.6426   -1.6476 C.3      1 ZINC000006094354   -0.1200
13     C13    -2.8329    5.1504   -0.8549 C.3      1 ZINC000006094354   -0.0900
14     C14     1.0785    3.3545   -0.2013 C.3      1 ZINC000006094354    0.1100
15     N15     1.1392    1.9054    0.0014 N.am     1 ZINC000006094354   -0.6100
16     C16     2.4108    1.1995   -0.1750 C.3      1 ZINC000006094354    0.1400
17     H17     2.3422    0.5328   -1.0346 H        1 ZINC000006094354    0.1100
18     C18     2.7238    0.3849    1.0821 C.3      1 ZINC000006094354   -0.0100
19     N19     3.9895    0.8329    1.6678 N.4      1 ZINC000006094354   -0.3800
20     H20     4.1701    0.2846    2.4953 H        1 ZINC000006094354    0.4300
21     C21     5.0936    0.6293    0.7269 C.3      1 ZINC000006094354   -0.0100
22     C22     4.8592    1.4519   -0.5421 C.3      1 ZINC000006094354   -0.1300
23     C23     3.5365    2.2170   -0.4020 C.3      1 ZINC000006094354   -0.1100
24     C24     3.6272    3.1165    0.8377 C.3      1 ZINC000006094354   -0.1600
25     C25     3.9080    2.2433    2.0548 C.3      1 ZINC000006094354    0.0000
26     H26    -2.2668    0.3459    1.4712 H        1 ZINC000006094354    0.1400
27     H27    -4.4255    1.5346    1.5212 H        1 ZINC000006094354    0.1400
28     H28    -4.6437    3.7310    0.4564 H        1 ZINC000006094354    0.1300
29     H29    -0.3392    5.6448    0.0702 H        1 ZINC000006094354    0.0700
30     H30     0.5100    5.6997   -1.4963 H        1 ZINC000006094354    0.0800
31     H31    -1.6928    6.7268   -1.7446 H        1 ZINC000006094354    0.0800
32     H32    -1.6557    5.1935   -2.6406 H        1 ZINC000006094354    0.0700
33     H33    -3.6906    5.0796   -1.5239 H        1 ZINC000006094354    0.0800
34     H34    -3.0596    5.8783   -0.0759 H        1 ZINC000006094354    0.0800
35     H35     1.9399    3.6711   -0.7893 H        1 ZINC000006094354    0.1000
36     H36     1.1021    3.8549    0.7668 H        1 ZINC000006094354    0.0800
37     H37     1.9220    0.5181    1.8084 H        1 ZINC000006094354    0.1400
38     H38     2.8001   -0.6703    0.8196 H        1 ZINC000006094354    0.1400
39     H39     6.0281    0.9416    1.1929 H        1 ZINC000006094354    0.1300
40     H40     5.1567   -0.4273    0.4665 H        1 ZINC000006094354    0.1300
41     H41     5.6779    2.1591   -0.6754 H        1 ZINC000006094354    0.1100
42     H42     4.8047    0.7866   -1.4038 H        1 ZINC000006094354    0.1000
43     H43     3.3432    2.8045   -1.2995 H        1 ZINC000006094354    0.1300
44     H44     4.4406    3.8311    0.7119 H        1 ZINC000006094354    0.1100
45     H45     2.6865    3.6508    0.9710 H        1 ZINC000006094354    0.1100
46     H46     3.1007    2.3601    2.7778 H        1 ZINC000006094354    0.1200
47     H47     4.8482    2.5517    2.5120 H        1 ZINC000006094354    0.1300
@<TRIPOS>BOND
1     1     2     2
2     2     15    am
3     2     3     1
4     3     8     ar
5     3     4     ar
6     4     5     ar
7     4     26    1
8     5     6     ar
9     5     27    1
10    6     7     ar
11    6     28    1
12    7     13    1
13    7     8     ar
14    8     9     1
15    9     10    1
16    9     11    1
17    9     14    1
18    11    12    1
19    11    29    1
20    11    30    1
21    12    13    1
22    12    31    1
23    12    32    1
24    13    33    1
25    13    34    1
26    14    15    1
27    14    35    1
28    14    36    1
29    15    16    1
30    16    17    1
31    16    23    1
32    16    18    1
33    18    19    1
34    18    37    1
35    18    38    1
36    19    20    1
37    19    25    1
38    19    21    1
39    21    22    1
40    21    39    1
41    21    40    1
42    22    23    1
43    22    41    1
44    22    42    1
45    23    24    1
46    23    43    1
47    24    25    1
48    24    44    1
49    24    45    1
50    25    46    1
51    25    47    1
@<TRIPOS>SUBSTRUCTURE
1   ZINC000006094354 1     RESIDUE    1   A     ZIN   1

@<TRIPOS>MOLECULE
ZINC000006094354
46    50    1     0     0
SMALL
USER_CHARGES
@<TRIPOS>ATOM
1      O1      0.1151    0.0397    0.6415 O.2      1 ZINC000006094354   -0.5300
2      C2      0.0355    1.2165    0.3475 C.2      1 ZINC000006094354    0.5600
3      C3     -1.2732    1.9037    0.3733 C.ar     1 ZINC000006094354   -0.1300
4      C4     -2.3635    1.3161    1.0106 C.ar     1 ZINC000006094354   -0.0600
5      C5     -3.5721    1.9821    1.0364 C.ar     1 ZINC000006094354   -0.1300
6      C6     -3.6941    3.2164    0.4323 C.ar     1 ZINC000006094354   -0.1000
7      C7     -2.6121    3.8102   -0.2129 C.ar     1 ZINC000006094354   -0.0800
8      C8     -1.4044    3.1540   -0.2410 C.ar     1 ZINC000006094354   -0.0400
9      C9     -0.2041    3.7397   -0.9394 C.3      1 ZINC000006094354   -0.0700
10     H10    -0.1620    3.3663   -1.9625 H        1 ZINC000006094354    0.0900
11     C11    -0.3327    5.2651   -0.9588 C.3      1 ZINC000006094354   -0.1100
12     C12    -1.6402    5.6376   -1.6530 C.3      1 ZINC000006094354   -0.1200
13     C13    -2.8352    5.1469   -0.8574 C.3      1 ZINC000006094354   -0.0800
14     C14     1.0777    3.3540   -0.2048 C.3      1 ZINC000006094354    0.1100
15     N15     1.1392    1.9054    0.0014 N.am     1 ZINC000006094354   -0.6000
16     C16     2.4108    1.1995   -0.1750 C.3      1 ZINC000006094354    0.1200
17     H17     2.3422    0.5328   -1.0346 H        1 ZINC000006094354    0.0800
18     C18     2.7240    0.3842    1.0830 C.3      1 ZINC000006094354    0.0500
19     N19     3.9949    0.8447    1.6581 N.3      1 ZINC000006094354   -0.5300
20     C20     5.1059    0.6349    0.7196 C.3      1 ZINC000006094354    0.0500
21     C21     4.8603    1.4564   -0.5492 C.3      1 ZINC000006094354   -0.1500
22     C22     3.5361    2.2167   -0.4019 C.3      1 ZINC000006094354   -0.1000
23     C23     3.6269    3.1229    0.8323 C.3      1 ZINC000006094354   -0.1700
24     C24     3.9100    2.2539    2.0660 C.3      1 ZINC000006094354    0.0500
25     H25    -2.2642    0.3483    1.4797 H        1 ZINC000006094354    0.1400
26     H26    -4.4233    1.5364    1.5297 H        1 ZINC000006094354    0.1300
27     H27    -4.6437    3.7301    0.4598 H        1 ZINC000006094354    0.1300
28     H28    -0.3403    5.6444    0.0631 H        1 ZINC000006094354    0.0700
29     H29     0.5067    5.6958   -1.5047 H        1 ZINC000006094354    0.0800
30     H30    -1.6968    6.7216   -1.7525 H        1 ZINC000006094354    0.0700
31     H31    -1.6604    5.1861   -2.6449 H        1 ZINC000006094354    0.0700
32     H32    -3.6937    5.0742   -1.5251 H        1 ZINC000006094354    0.0800
33     H33    -3.0611    5.8767   -0.0799 H        1 ZINC000006094354    0.0800
34     H34     1.9383    3.6694   -0.7947 H        1 ZINC000006094354    0.1000
35     H35     1.1025    3.8567    0.7621 H        1 ZINC000006094354    0.0700
36     H36     1.9249    0.5190    1.8120 H        1 ZINC000006094354    0.0900
37     H37     2.8042   -0.6710    0.8218 H        1 ZINC000006094354    0.0900
38     H38     6.0393    0.9531    1.1839 H        1 ZINC000006094354    0.0800
39     H39     5.1694   -0.4222    0.4617 H        1 ZINC000006094354    0.0800
40     H40     5.6756    2.1664   -0.6880 H        1 ZINC000006094354    0.0700
41     H41     4.8030    0.7904   -1.4101 H        1 ZINC000006094354    0.0700
42     H42     3.3393    2.8039   -1.2988 H        1 ZINC000006094354    0.0900
43     H43     4.4375    3.8396    0.7003 H        1 ZINC000006094354    0.0700
44     H44     2.6847    3.6547    0.9650 H        1 ZINC000006094354    0.0800
45     H45     3.1024    2.3734    2.7882 H        1 ZINC000006094354    0.0700
46     H46     4.8523    2.5618    2.5193 H        1 ZINC000006094354    0.0800
@<TRIPOS>BOND
1     1     2     2
2     2     15    am
3     2     3     1
4     3     8     ar
5     3     4     ar
6     4     5     ar
7     4     25    1
8     5     6     ar
9     5     26    1
10    6     7     ar
11    6     27    1
12    7     13    1
13    7     8     ar
14    8     9     1
15    9     10    1
16    9     11    1
17    9     14    1
18    11    12    1
19    11    28    1
20    11    29    1
21    12    13    1
22    12    30    1
23    12    31    1
24    13    32    1
25    13    33    1
26    14    15    1
27    14    34    1
28    14    35    1
29    15    16    1
30    16    17    1
31    16    22    1
32    16    18    1
33    18    19    1
34    18    36    1
35    18    37    1
36    19    24    1
37    19    20    1
38    20    21    1
39    20    38    1
40    20    39    1
41    21    22    1
42    21    40    1
43    21    41    1
44    22    23    1
45    22    42    1
46    23    24    1
47    23    43    1
48    23    44    1
49    24    45    1
50    24    46    1
@<TRIPOS>SUBSTRUCTURE
1   ZINC000006094354 1     RESIDUE    1   A     ZIN   1
