@<TRIPOS>MOLECULE
ZINC000002847375
35    35    1     0     0
SMALL
USER_CHARGES
@<TRIPOS>ATOM
1      C1      0.6863    1.5319    0.2128 C.3      1 ZINC000002847375   -0.1800
2      C2      0.3382    0.0459    0.1052 C.3      1 ZINC000002847375   -0.0200
3      N3      0.9281   -0.6786    1.2389 N.4      1 ZINC000002847375   -0.3800
4      H4      1.9204   -0.4993    1.2729 H        1 ZINC000002847375    0.4300
5      C5      0.3050   -0.2230    2.4887 C.3      1 ZINC000002847375   -0.0200
6      C6     -1.1768   -0.6039    2.4882 C.3      1 ZINC000002847375   -0.1900
7      C7      0.6963   -2.1197    1.0731 C.3      1 ZINC000002847375   -0.0300
8      H8     -0.3697   -2.3031    0.9382 H        1 ZINC000002847375    0.1600
9      C9      1.1880   -2.8618    2.3174 C.3      1 ZINC000002847375   -0.1800
10     C10     1.4480   -2.6135   -0.1361 C.2      1 ZINC000002847375    0.4000
11     O11     2.3753   -1.9695   -0.5783 O.2      1 ZINC000002847375   -0.4300
12     C12     1.0565   -3.8775   -0.7803 C.ar     1 ZINC000002847375   -0.1900
13     C13    -0.0161   -4.6203   -0.2767 C.ar     1 ZINC000002847375   -0.0800
14     C14    -0.3767   -5.8036   -0.8858 C.ar     1 ZINC000002847375   -0.1300
15     C15     0.3200   -6.2569   -1.9924 C.ar     1 ZINC000002847375   -0.0600
16     C16     1.3827   -5.5275   -2.4968 C.ar     1 ZINC000002847375   -0.1300
17     C17     1.7516   -4.3391   -1.9026 C.ar     1 ZINC000002847375   -0.0500
18     H18     1.7694    1.6533    0.1977 H        1 ZINC000002847375    0.0800
19     H19     0.2486    2.0694   -0.6284 H        1 ZINC000002847375    0.1100
20     H20     0.2889    1.9315    1.1458 H        1 ZINC000002847375    0.0800
21     H21    -0.7449   -0.0756    0.1203 H        1 ZINC000002847375    0.1300
22     H22     0.7357   -0.3538   -0.8278 H        1 ZINC000002847375    0.1300
23     H23     0.8015   -0.6963    3.3358 H        1 ZINC000002847375    0.1300
24     H24     0.4018    0.8597    2.5694 H        1 ZINC000002847375    0.1400
25     H25    -1.6413   -0.2578    3.4116 H        1 ZINC000002847375    0.1100
26     H26    -1.6715   -0.1380    1.6360 H        1 ZINC000002847375    0.0800
27     H27    -1.2735   -1.6873    2.4168 H        1 ZINC000002847375    0.0800
28     H28     1.0499   -3.9341    2.1792 H        1 ZINC000002847375    0.1100
29     H29     2.2456   -2.6487    2.4733 H        1 ZINC000002847375    0.0900
30     H30     0.6189   -2.5312    3.1863 H        1 ZINC000002847375    0.1000
31     H31    -0.5603   -4.2682    0.5872 H        1 ZINC000002847375    0.1300
32     H32    -1.2048   -6.3784   -0.4981 H        1 ZINC000002847375    0.1400
33     H33     0.0332   -7.1849   -2.4647 H        1 ZINC000002847375    0.1400
34     H34     1.9215   -5.8878   -3.3606 H        1 ZINC000002847375    0.1400
35     H35     2.5810   -3.7711   -2.2973 H        1 ZINC000002847375    0.1400
@<TRIPOS>BOND
1     1     2     1
2     1     18    1
3     1     19    1
4     1     20    1
5     2     3     1
6     2     21    1
7     2     22    1
8     3     4     1
9     3     5     1
10    3     7     1
11    5     6     1
12    5     23    1
13    5     24    1
14    6     25    1
15    6     26    1
16    6     27    1
17    7     8     1
18    7     9     1
19    7     10    1
20    9     28    1
21    9     29    1
22    9     30    1
23    10    11    2
24    10    12    1
25    12    17    ar
26    12    13    ar
27    13    14    ar
28    13    31    1
29    14    15    ar
30    14    32    1
31    15    16    ar
32    15    33    1
33    16    17    ar
34    16    34    1
35    17    35    1
@<TRIPOS>SUBSTRUCTURE
1   ZINC000002847375 1     RESIDUE    1   A     ZIN   1

@<TRIPOS>MOLECULE
ZINC000002847375
34    34    1     0     0
SMALL
USER_CHARGES
@<TRIPOS>ATOM
1      C1      0.3670    1.4646   -2.5582 C.3      1 ZINC000002847375   -0.1500
2      C2     -0.1390    0.0237   -2.4654 C.3      1 ZINC000002847375    0.0400
3      N3      0.4882   -0.6425   -1.3161 N.3      1 ZINC000002847375   -0.5200
4      C4      0.0495   -0.0360   -0.0522 C.3      1 ZINC000002847375    0.0400
5      C5     -1.4501   -0.2752    0.1348 C.3      1 ZINC000002847375   -0.2000
6      C6      0.2145   -2.0857   -1.3304 C.3      1 ZINC000002847375    0.0400
7      H7     -0.8620   -2.2510   -1.3742 H        1 ZINC000002847375    0.0700
8      C8      0.7772   -2.7242   -0.0589 C.3      1 ZINC000002847375   -0.1500
9      C9      0.8679   -2.7090   -2.5370 C.2      1 ZINC000002847375    0.4000
10     O10     1.8035   -2.1551   -3.0737 O.2      1 ZINC000002847375   -0.4300
11     C11     0.3703   -3.9899   -3.0638 C.ar     1 ZINC000002847375   -0.1700
12     C12    -0.7123   -4.6289   -2.4511 C.ar     1 ZINC000002847375   -0.0800
13     C13    -1.1727   -5.8288   -2.9506 C.ar     1 ZINC000002847375   -0.1300
14     C14    -0.5660   -6.4011   -4.0552 C.ar     1 ZINC000002847375   -0.0900
15     C15     0.5059   -5.7749   -4.6672 C.ar     1 ZINC000002847375   -0.1300
16     C16     0.9739   -4.5715   -4.1833 C.ar     1 ZINC000002847375   -0.0600
17     H17     0.1104    1.9994   -1.6437 H        1 ZINC000002847375    0.0600
18     H18     1.4495    1.4620   -2.6860 H        1 ZINC000002847375    0.0700
19     H19    -0.0984    1.9589   -3.4109 H        1 ZINC000002847375    0.0600
20     H20    -1.2214    0.0262   -2.3376 H        1 ZINC000002847375    0.0400
21     H21     0.1176   -0.5111   -3.3799 H        1 ZINC000002847375    0.0700
22     H22     0.5955   -0.4873    0.7762 H        1 ZINC000002847375    0.0800
23     H23     0.2462    1.0359   -0.0760 H        1 ZINC000002847375    0.0800
24     H24    -1.6470   -1.3471    0.1572 H        1 ZINC000002847375    0.0600
25     H25    -1.7753    0.1736    1.0734 H        1 ZINC000002847375    0.0600
26     H26    -1.9962    0.1773   -0.6928 H        1 ZINC000002847375    0.0600
27     H27     0.3047   -2.2733    0.8137 H        1 ZINC000002847375    0.0700
28     H28     0.5741   -3.7950   -0.0696 H        1 ZINC000002847375    0.0700
29     H29     1.8537   -2.5589   -0.0152 H        1 ZINC000002847375    0.0700
30     H30    -1.1863   -4.1839   -1.5887 H        1 ZINC000002847375    0.1300
31     H31    -2.0086   -6.3236   -2.4786 H        1 ZINC000002847375    0.1300
32     H32    -0.9307   -7.3414   -4.4414 H        1 ZINC000002847375    0.1300
33     H33     0.9740   -6.2277   -5.5287 H        1 ZINC000002847375    0.1300
34     H34     1.8104   -4.0840   -4.6619 H        1 ZINC000002847375    0.1300
@<TRIPOS>BOND
1     1     2     1
2     1     17    1
3     1     18    1
4     1     19    1
5     2     3     1
6     2     20    1
7     2     21    1
8     3     4     1
9     3     6     1
10    4     5     1
11    4     22    1
12    4     23    1
13    5     24    1
14    5     25    1
15    5     26    1
16    6     7     1
17    6     8     1
18    6     9     1
19    8     27    1
20    8     28    1
21    8     29    1
22    9     10    2
23    9     11    1
24    11    16    ar
25    11    12    ar
26    12    13    ar
27    12    30    1
28    13    14    ar
29    13    31    1
30    14    15    ar
31    14    32    1
32    15    16    ar
33    15    33    1
34    16    34    1
@<TRIPOS>SUBSTRUCTURE
1   ZINC000002847375 1     RESIDUE    1   A     ZIN   1
