@<TRIPOS>MOLECULE
ZINC000002539827
  32   33    0    0    0
SMALL
USER_CHARGES
NO_NAME
@<TRIPOS>ATOM
    1 C1       -0.0187     1.5258     0.0104 C.3    1 <0>      -0.1800
    2 C2        0.0021    -0.0041     0.0020 C.3    1 <0>       0.0700
    3 H3        0.5123    -0.3556    -0.8948 H      1 <0>       0.0600
    4 O4       -1.3386    -0.4987     0.0122 O.3    1 <0>      -0.5700
    5 C5        0.7421    -0.5109     1.2415 C.3    1 <0>       0.1100
    6 H6        0.2319    -0.1594     2.1383 H      1 <0>       0.1100
    7 O7        2.0827    -0.0163     1.2314 O.3    1 <0>      -0.5500
    8 C8        0.7628    -2.0407     1.2331 C.3    1 <0>       0.1100
    9 H9       -0.2578    -2.4233     1.2408 H      1 <0>       0.1100
   10 C10       1.5207    -2.5570     2.4656 C.3    1 <0>       0.1300
   11 N11       2.9192    -2.1154     2.3626 N.pl3  1 <0>      -0.7100
   12 C12       3.5797    -2.2486     1.1576 C.2    1 <0>       0.3600
   13 C13       2.8770    -2.4466     0.0038 C.2    1 <0>      -0.0800
   14 N14       1.4662    -2.5226     0.0334 N.pl3  1 <0>      -0.7300
   15 C15       3.5780    -2.5742    -1.2124 C.2    1 <0>       0.5400
   16 O16       2.9706    -2.7497    -2.2596 O.2    1 <0>      -0.5300
   17 N17       4.9193    -2.5018    -1.2106 N.2    1 <0>      -0.6300
   18 C18       5.5869    -2.3132    -0.0927 C.2    1 <0>       0.6600
   19 N19       6.9561    -2.2457    -0.1321 N.pl3  1 <0>      -0.8200
   20 N20       4.9480    -2.1838     1.1018 N.pl3  1 <0>      -0.6400
   21 H21       1.0039     1.9031     0.0027 H      1 <0>       0.0700
   22 H22      -0.5459     1.8868    -0.8726 H      1 <0>       0.0600
   23 H23      -0.5289     1.8773     0.9072 H      1 <0>       0.0600
   24 H24      -1.8677    -0.2163    -0.7464 H      1 <0>       0.3800
   25 H25       2.5972    -0.2904     0.4599 H      1 <0>       0.3700
   26 H26       1.0718    -2.1487     3.3711 H      1 <0>       0.0900
   27 H27       1.4799    -3.6459     2.4930 H      1 <0>       0.0700
   28 H28       3.3719    -1.7350     3.1315 H      1 <0>       0.4000
   29 H29       0.9734    -2.8843    -0.7197 H      1 <0>       0.4100
   30 H30       7.4220    -2.3366    -0.9780 H      1 <0>       0.4300
   31 H31       7.4585    -2.1069     0.6859 H      1 <0>       0.4100
   32 H32       5.4606    -2.0453     1.9136 H      1 <0>       0.4100
@<TRIPOS>BOND
   1    1    2 1
   2    1   21 1
   3    1   22 1
   4    1   23 1
   5    2    3 1
   6    2    4 1
   7    2    5 1
   8    4   24 1
   9    5    6 1
  10    5    7 1
  11    5    8 1
  12    7   25 1
  13    8    9 1
  14    8   14 1
  15    8   10 1
  16   10   11 1
  17   10   26 1
  18   10   27 1
  19   11   12 1
  20   11   28 1
  21   12   20 1
  22   12   13 2
  23   13   14 1
  24   13   15 1
  25   14   29 1
  26   15   16 2
  27   15   17 1
  28   17   18 2
  29   18   19 1
  30   18   20 1
  31   19   30 1
  32   19   31 1
  33   20   32 1

@<TRIPOS>MOLECULE
ZINC000002539827
  32   33    0    0    0
SMALL
USER_CHARGES
NO_NAME
@<TRIPOS>ATOM
    1 C1       -0.0187     1.5258     0.0104 C.3    1 <0>      -0.1800
    2 C2        0.0021    -0.0041     0.0020 C.3    1 <0>       0.0700
    3 H3       -1.0205    -0.3814     0.0098 H      1 <0>       0.1000
    4 O4        0.6932    -0.4774     1.1597 O.3    1 <0>      -0.5600
    5 C5        0.7182    -0.4975    -1.2568 C.3    1 <0>       0.0700
    6 H6        1.7408    -0.1202    -1.2645 H      1 <0>       0.1000
    7 O7        0.0271    -0.0241    -2.4145 O.3    1 <0>      -0.5500
    8 C8        0.7390    -2.0273    -1.2652 C.3    1 <0>       0.1200
    9 H9        1.2653    -2.3933    -0.3837 H      1 <0>       0.1100
   10 C10       1.4415    -2.5298    -2.5349 C.3    1 <0>       0.1200
   11 N11       0.6552    -2.0995    -3.7000 N.pl3  1 <0>      -0.6900
   12 C12      -0.7210    -2.2633    -3.6811 C.2    1 <0>       0.4200
   13 C13      -1.3747    -2.4829    -2.4767 C.2    1 <0>      -0.1300
   14 N14      -0.6394    -2.5434    -1.2714 N.pl3  1 <0>      -0.7300
   15 C15      -2.7643    -2.6428    -2.4764 C.2    1 <0>       0.5400
   16 O16      -3.3704    -2.8362    -1.4334 O.2    1 <0>      -0.5500
   17 N17      -3.4213    -2.5781    -3.6551 N.am   1 <0>      -0.6500
   18 C18      -2.7341    -2.3627    -4.8099 C.2    1 <0>       0.6300
   19 N19      -3.4211    -2.3021    -5.9960 N.pl3  1 <0>      -0.8200
   20 N20      -1.4270    -2.2111    -4.8169 N.2    1 <0>      -0.5900
   21 H21       1.0039     1.9031     0.0027 H      1 <0>       0.0600
   22 H22      -0.5459     1.8868    -0.8726 H      1 <0>       0.0700
   23 H23      -0.5289     1.8773     0.9072 H      1 <0>       0.0600
   24 H24       1.6114    -0.1800     1.2187 H      1 <0>       0.3700
   25 H25      -0.8911    -0.3216    -2.4734 H      1 <0>       0.3700
   26 H26       2.4442    -2.1062    -2.5919 H      1 <0>       0.0900
   27 H27       1.5026    -3.6179    -2.5147 H      1 <0>       0.0700
   28 H28       1.0932    -1.7061    -4.4709 H      1 <0>       0.4100
   29 H29      -1.0341    -2.9165    -0.4677 H      1 <0>       0.4100
   30 H30      -4.3850    -2.6858    -3.6784 H      1 <0>       0.4100
   31 H31      -4.3848    -2.4122    -6.0044 H      1 <0>       0.4100
   32 H32      -2.9431    -2.1491    -6.8260 H      1 <0>       0.4300
@<TRIPOS>BOND
   1    1    2 1
   2    1   21 1
   3    1   22 1
   4    1   23 1
   5    2    3 1
   6    2    4 1
   7    2    5 1
   8    4   24 1
   9    5    6 1
  10    5    7 1
  11    5    8 1
  12    7   25 1
  13    8    9 1
  14    8   14 1
  15    8   10 1
  16   10   11 1
  17   10   26 1
  18   10   27 1
  19   11   12 1
  20   11   28 1
  21   12   20 1
  22   12   13 2
  23   13   14 1
  24   13   15 1
  25   14   29 1
  26   15   16 2
  27   15   17 am
  28   17   18 1
  29   17   30 1
  30   18   19 1
  31   18   20 2
  32   19   31 1
  33   19   32 1

@<TRIPOS>MOLECULE
ZINC000002539827
  31   32    0    0    0
SMALL
USER_CHARGES
NO_NAME
@<TRIPOS>ATOM
    1 C1       -0.0187     1.5258     0.0104 C.3    1 <0>      -0.1800
    2 C2        0.0021    -0.0041     0.0020 C.3    1 <0>       0.0700
    3 H3       -1.0205    -0.3814     0.0098 H      1 <0>       0.1100
    4 O4        0.6932    -0.4774     1.1597 O.3    1 <0>      -0.5600
    5 C5        0.7182    -0.4975    -1.2568 C.3    1 <0>       0.0700
    6 H6        1.7408    -0.1202    -1.2645 H      1 <0>       0.0800
    7 O7        0.0271    -0.0241    -2.4145 O.3    1 <0>      -0.5500
    8 C8        0.7390    -2.0273    -1.2652 C.3    1 <0>       0.1200
    9 H9        1.2653    -2.3933    -0.3837 H      1 <0>       0.0800
   10 C10       1.4415    -2.5298    -2.5349 C.3    1 <0>       0.1300
   11 N11       0.6552    -2.0995    -3.7000 N.pl3  1 <0>      -0.7200
   12 C12      -0.7210    -2.2633    -3.6811 C.2    1 <0>       0.4100
   13 C13      -1.3747    -2.4829    -2.4767 C.2    1 <0>      -0.1800
   14 N14      -0.6394    -2.5434    -1.2714 N.pl3  1 <0>      -0.7400
   15 C15      -2.7643    -2.6428    -2.4764 C.2    1 <0>       0.5200
   16 O16      -3.3704    -2.8362    -1.4334 O.2    1 <0>      -0.6400
   17 N17      -3.4213    -2.5781    -3.6551 N.pl3  1 <0>      -0.7100
   18 C18      -2.7341    -2.3627    -4.8099 C.2    1 <0>       0.5800
   19 N19      -3.4211    -2.3021    -5.9960 N.pl3  1 <0>      -0.8400
   20 N20      -1.4270    -2.2111    -4.8169 N.2    1 <0>      -0.6800
   21 H21       1.0039     1.9031     0.0027 H      1 <0>       0.0500
   22 H22      -0.5459     1.8868    -0.8726 H      1 <0>       0.0700
   23 H23      -0.5289     1.8773     0.9072 H      1 <0>       0.0600
   24 H24       1.6114    -0.1800     1.2187 H      1 <0>       0.3700
   25 H25      -0.8911    -0.3216    -2.4734 H      1 <0>       0.3800
   26 H26       2.4442    -2.1062    -2.5919 H      1 <0>       0.0700
   27 H27       1.5026    -3.6179    -2.5147 H      1 <0>       0.0500
   28 H28       1.0932    -1.7061    -4.4709 H      1 <0>       0.3900
   29 H29      -1.0341    -2.9165    -0.4677 H      1 <0>       0.3900
   30 H30      -4.3848    -2.4122    -6.0044 H      1 <0>       0.4000
   31 H31      -2.9431    -2.1491    -6.8260 H      1 <0>       0.3900
@<TRIPOS>BOND
   1    1    2 1
   2    1   21 1
   3    1   22 1
   4    1   23 1
   5    2    3 1
   6    2    4 1
   7    2    5 1
   8    4   24 1
   9    5    6 1
  10    5    7 1
  11    5    8 1
  12    7   25 1
  13    8    9 1
  14    8   14 1
  15    8   10 1
  16   10   11 1
  17   10   26 1
  18   10   27 1
  19   11   12 1
  20   11   28 1
  21   12   20 1
  22   12   13 2
  23   13   14 1
  24   13   15 1
  25   14   29 1
  26   15   16 2
  27   15   17 1
  28   17   18 1
  29   18   19 1
  30   18   20 2
  31   19   30 1
  32   19   31 1
