@<TRIPOS>MOLECULE
ZINC000022002214
44    46    1     0     0
SMALL
USER_CHARGES
@<TRIPOS>ATOM
1      C1      0.3373    2.1802    0.6287 C.3      1 ZINC000022002214   -0.1400
2      C2      0.5357    0.6664    0.5289 C.3      1 ZINC000022002214   -0.0500
3      C3      1.1412    0.1536    1.8100 C.2      1 ZINC000022002214   -0.0900
4      C4      2.4538    0.0384    2.0993 C.2      1 ZINC000022002214    0.0000
5      C5      3.5863    0.4086    1.1766 C.3      1 ZINC000022002214   -0.0800
6      N6      2.5947   -0.4675    3.3637 N.pl3    1 ZINC000022002214   -0.5300
7      C7      1.3967   -0.6870    3.9148 C.2      1 ZINC000022002214    0.0900
8      C8      0.4313   -0.3117    2.9881 C.2      1 ZINC000022002214   -0.2600
9      C9     -1.0032   -0.4286    3.2702 C.2      1 ZINC000022002214    0.4300
10     O10    -1.8496    0.0741    2.5608 O.2      1 ZINC000022002214   -0.4600
11     C11    -1.3520   -1.2273    4.5180 C.3      1 ZINC000022002214   -0.1300
12     H12    -1.2548   -2.2930    4.3109 H        1 ZINC000022002214    0.1100
13     C13    -2.7873   -0.9144    4.9457 C.3      1 ZINC000022002214    0.0700
14     N14    -3.1400   -1.7334    6.1131 N.3      1 ZINC000022002214   -0.5300
15     C15    -2.8744   -3.1566    5.8578 C.3      1 ZINC000022002214    0.0100
16     C16    -3.1988   -3.9646    7.1170 C.3      1 ZINC000022002214    0.0600
17     O17    -4.5578   -3.7265    7.4933 O.3      1 ZINC000022002214   -0.3900
18     C18    -4.8515   -2.3506    7.7501 C.3      1 ZINC000022002214    0.0600
19     C19    -4.5439   -1.5262    6.4972 C.3      1 ZINC000022002214    0.0200
20     C20    -0.3815   -0.8280    5.6341 C.3      1 ZINC000022002214   -0.1000
21     C21     1.0519   -1.2271    5.2789 C.3      1 ZINC000022002214   -0.0600
22     H22     1.3006    2.6628    0.7939 H        1 ZINC000022002214    0.0500
23     H23    -0.1007    2.5511   -0.2980 H        1 ZINC000022002214    0.0600
24     H24    -0.3293    2.4052    1.4612 H        1 ZINC000022002214    0.0600
25     H25    -0.4276    0.1839    0.3637 H        1 ZINC000022002214    0.0700
26     H26     1.2023    0.4414   -0.3036 H        1 ZINC000022002214    0.0700
27     H27     3.8589    1.4518    1.3363 H        1 ZINC000022002214    0.0700
28     H28     4.4467   -0.2276    1.3840 H        1 ZINC000022002214    0.0600
29     H29     3.2724    0.2693    0.1421 H        1 ZINC000022002214    0.0800
30     H30     3.4441   -0.6424    3.7982 H        1 ZINC000022002214    0.4100
31     H31    -2.8671    0.1413    5.2051 H        1 ZINC000022002214    0.0800
32     H32    -3.4683   -1.1393    4.1249 H        1 ZINC000022002214    0.0500
33     H33    -3.4987   -3.5012    5.0334 H        1 ZINC000022002214    0.0400
34     H34    -1.8238   -3.2903    5.6001 H        1 ZINC000022002214    0.0900
35     H35    -3.0578   -5.0264    6.9146 H        1 ZINC000022002214    0.1000
36     H36    -2.5376   -3.6571    7.9272 H        1 ZINC000022002214    0.0600
37     H37    -5.9059   -2.2450    8.0055 H        1 ZINC000022002214    0.1000
38     H38    -4.2384   -1.9961    8.5787 H        1 ZINC000022002214    0.0600
39     H39    -4.7119   -0.4698    6.7064 H        1 ZINC000022002214    0.0900
40     H40    -5.1948   -1.8448    5.6831 H        1 ZINC000022002214    0.0500
41     H41    -0.4246    0.2516    5.7779 H        1 ZINC000022002214    0.0700
42     H42    -0.6744   -1.3245    6.5592 H        1 ZINC000022002214    0.1000
43     H43     1.1344   -2.3139    5.2652 H        1 ZINC000022002214    0.0900
44     H44     1.7380   -0.8185    6.0208 H        1 ZINC000022002214    0.0800
@<TRIPOS>BOND
1     1     2     1
2     1     22    1
3     1     23    1
4     1     24    1
5     2     3     1
6     2     25    1
7     2     26    1
8     3     8     1
9     3     4     2
10    4     5     1
11    4     6     1
12    5     27    1
13    5     28    1
14    5     29    1
15    6     7     1
16    6     30    1
17    7     21    1
18    7     8     2
19    8     9     1
20    9     10    2
21    9     11    1
22    11    12    1
23    11    13    1
24    11    20    1
25    13    14    1
26    13    31    1
27    13    32    1
28    14    19    1
29    14    15    1
30    15    16    1
31    15    33    1
32    15    34    1
33    16    17    1
34    16    35    1
35    16    36    1
36    17    18    1
37    18    19    1
38    18    37    1
39    18    38    1
40    19    39    1
41    19    40    1
42    20    21    1
43    20    41    1
44    20    42    1
45    21    43    1
46    21    44    1
@<TRIPOS>SUBSTRUCTURE
1   ZINC000022002214 1     RESIDUE    1   A     ZIN   1

@<TRIPOS>MOLECULE
ZINC000022002214
45    47    1     0     0
SMALL
USER_CHARGES
@<TRIPOS>ATOM
1      C1     -0.0187    1.5258    0.0104 C.3      1 ZINC000022002214   -0.1400
2      C2      0.0021   -0.0041    0.0020 C.3      1 ZINC000022002214   -0.0500
3      C3     -1.4117   -0.5257    0.0127 C.2      1 ZINC000022002214   -0.0800
4      C4     -2.1658   -0.8072    1.0953 C.2      1 ZINC000022002214    0.0100
5      C5     -1.7277   -0.6498    2.5286 C.3      1 ZINC000022002214   -0.0900
6      N6     -3.3922   -1.2580    0.6864 N.pl3    1 ZINC000022002214   -0.5200
7      C7     -3.4610   -1.2774   -0.6485 C.2      1 ZINC000022002214    0.1000
8      C8     -2.2434   -0.8222   -1.1401 C.2      1 ZINC000022002214   -0.2800
9      C9     -1.9748   -0.7219   -2.5784 C.2      1 ZINC000022002214    0.4300
10     O10    -1.0031   -0.1454   -3.0211 O.2      1 ZINC000022002214   -0.4800
11     C11    -3.0044   -1.3947   -3.4751 C.3      1 ZINC000022002214   -0.1600
12     H12    -2.8469   -2.4732   -3.4699 H        1 ZINC000022002214    0.1300
13     C13    -2.8713   -0.8613   -4.9029 C.3      1 ZINC000022002214    0.0000
14     N14    -1.5663   -1.2528   -5.4522 N.4      1 ZINC000022002214   -0.3900
15     H15    -0.8331   -0.9373   -4.8349 H        1 ZINC000022002214    0.4300
16     C16    -1.3887   -0.6415   -6.7765 C.3      1 ZINC000022002214   -0.0400
17     C17    -0.0283   -1.0507   -7.3465 C.3      1 ZINC000022002214    0.0400
18     O18     0.0454   -2.4776   -7.4124 O.3      1 ZINC000022002214   -0.3600
19     C19    -0.1455   -3.1210   -6.1493 C.3      1 ZINC000022002214    0.0400
20     C20    -1.5061   -2.7157   -5.5769 C.3      1 ZINC000022002214   -0.0500
21     C21    -4.4007   -1.0745   -2.9319 C.3      1 ZINC000022002214   -0.1000
22     C22    -4.6004   -1.6887   -1.5453 C.3      1 ZINC000022002214   -0.0600
23     H23     1.0039    1.9031    0.0027 H        1 ZINC000022002214    0.0600
24     H24    -0.5459    1.8868   -0.8726 H        1 ZINC000022002214    0.0500
25     H25    -0.5289    1.8773    0.9072 H        1 ZINC000022002214    0.0500
26     H26     0.5123   -0.3556   -0.8948 H        1 ZINC000022002214    0.0700
27     H27     0.5293   -0.3651    0.8851 H        1 ZINC000022002214    0.0700
28     H28    -1.9778    0.3523    2.8770 H        1 ZINC000022002214    0.0800
29     H29    -2.2380   -1.3877    3.1476 H        1 ZINC000022002214    0.0700
30     H30    -0.6503   -0.8002    2.5977 H        1 ZINC000022002214    0.0900
31     H31    -4.1099   -1.5258    1.2814 H        1 ZINC000022002214    0.4200
32     H32    -3.6658   -1.2780   -5.5220 H        1 ZINC000022002214    0.1400
33     H33    -2.9502    0.2258   -4.8935 H        1 ZINC000022002214    0.1400
34     H34    -2.1801   -0.9830   -7.4437 H        1 ZINC000022002214    0.1400
35     H35    -1.4331    0.4438   -6.6849 H        1 ZINC000022002214    0.1400
36     H36     0.0876   -0.6336   -8.3469 H        1 ZINC000022002214    0.1400
37     H37     0.7650   -0.6746   -6.7005 H        1 ZINC000022002214    0.0800
38     H38    -0.1145   -4.2023   -6.2833 H        1 ZINC000022002214    0.1400
39     H39     0.6438   -2.8158   -5.4623 H        1 ZINC000022002214    0.0800
40     H40    -1.6375   -3.1702   -4.5950 H        1 ZINC000022002214    0.1400
41     H41    -2.2975   -3.0563   -6.2445 H        1 ZINC000022002214    0.1400
42     H42    -4.5194    0.0068   -2.8621 H        1 ZINC000022002214    0.0900
43     H43    -5.1514   -1.4739   -3.6138 H        1 ZINC000022002214    0.1000
44     H44    -4.6172   -2.7755   -1.6275 H        1 ZINC000022002214    0.1000
45     H45    -5.5438   -1.3401   -1.1251 H        1 ZINC000022002214    0.1000
@<TRIPOS>BOND
1     1     2     1
2     1     23    1
3     1     24    1
4     1     25    1
5     2     3     1
6     2     26    1
7     2     27    1
8     3     8     1
9     3     4     2
10    4     5     1
11    4     6     1
12    5     28    1
13    5     29    1
14    5     30    1
15    6     7     1
16    6     31    1
17    7     22    1
18    7     8     2
19    8     9     1
20    9     10    2
21    9     11    1
22    11    12    1
23    11    13    1
24    11    21    1
25    13    14    1
26    13    32    1
27    13    33    1
28    14    15    1
29    14    20    1
30    14    16    1
31    16    17    1
32    16    34    1
33    16    35    1
34    17    18    1
35    17    36    1
36    17    37    1
37    18    19    1
38    19    20    1
39    19    38    1
40    19    39    1
41    20    40    1
42    20    41    1
43    21    22    1
44    21    42    1
45    21    43    1
46    22    44    1
47    22    45    1
@<TRIPOS>SUBSTRUCTURE
1   ZINC000022002214 1     RESIDUE    1   A     ZIN   1
