@<TRIPOS>MOLECULE
ZINC000001530599
29    29    1     0     0
SMALL
USER_CHARGES
@<TRIPOS>ATOM
1      C1     -0.0187    1.5258    0.0104 C.3      1 ZINC000001530599   -0.1500
2      C2      0.0021   -0.0041    0.0020 C.3      1 ZINC000001530599   -0.1300
3      C3     -1.4333   -0.5336    0.0129 C.3      1 ZINC000001530599    0.1400
4      N4     -1.4134   -1.9985    0.0048 N.am     1 ZINC000001530599   -0.7400
5      C5     -2.5713   -2.6882    0.0122 C.2      1 ZINC000001530599    0.7400
6      O6     -3.6340   -2.0938    0.0255 O.2      1 ZINC000001530599   -0.6400
7      N7     -2.5532   -4.0221    0.0048 N.am     1 ZINC000001530599   -1.2500
8      S8     -3.8364   -4.7864    0.0130 S.o2     1 ZINC000001530599    2.6900
9      O9     -4.6012   -4.4479    1.2237 O.2      1 ZINC000001530599   -1.0300
10     O10    -4.6242   -4.4350   -1.1792 O.3      1 ZINC000001530599   -1.0300
11     C11    -3.4910   -6.5142    0.0004 C.ar     1 ZINC000001530599   -0.6100
12     C12    -3.3614   -7.1841   -1.2019 C.ar     1 ZINC000001530599   -0.0100
13     C13    -3.0904   -8.5394   -1.2124 C.ar     1 ZINC000001530599   -0.1300
14     C14    -2.9489   -9.2256   -0.0193 C.ar     1 ZINC000001530599    0.0000
15     Cl15   -2.6080  -10.9277   -0.0317 Cl       1 ZINC000001530599   -0.0700
16     C16    -3.0787   -8.5545    1.1836 C.ar     1 ZINC000001530599   -0.1300
17     C17    -3.3441   -7.1981    1.1928 C.ar     1 ZINC000001530599   -0.0100
18     H18     1.0039    1.9031    0.0027 H        1 ZINC000001530599    0.0500
19     H19    -0.5459    1.8868   -0.8726 H        1 ZINC000001530599    0.0600
20     H20    -0.5289    1.8773    0.9072 H        1 ZINC000001530599    0.0600
21     H21     0.5123   -0.3556   -0.8948 H        1 ZINC000001530599    0.0700
22     H22     0.5293   -0.3651    0.8851 H        1 ZINC000001530599    0.0700
23     H23    -1.9435   -0.1821    0.9097 H        1 ZINC000001530599    0.0600
24     H24    -1.9605   -0.1726   -0.8702 H        1 ZINC000001530599    0.0600
25     H25    -0.5669   -2.4720   -0.0058 H        1 ZINC000001530599    0.3900
26     H26    -3.4722   -6.6485   -2.1331 H        1 ZINC000001530599    0.1500
27     H27    -2.9895   -9.0628   -2.1517 H        1 ZINC000001530599    0.1400
28     H28    -2.9687   -9.0897    2.1152 H        1 ZINC000001530599    0.1400
29     H29    -3.4451   -6.6741    2.1317 H        1 ZINC000001530599    0.1500
@<TRIPOS>BOND
1     1     2     1
2     1     18    1
3     1     19    1
4     1     20    1
5     2     3     1
6     2     21    1
7     2     22    1
8     3     4     1
9     3     23    1
10    3     24    1
11    4     5     am
12    4     25    1
13    5     6     2
14    5     7     1
15    7     8     2
16    8     9     2
17    8     10    1
18    8     11    1
19    11    17    ar
20    11    12    ar
21    12    13    ar
22    12    26    1
23    13    14    ar
24    13    27    1
25    14    15    1
26    14    16    ar
27    16    17    ar
28    16    28    1
29    17    29    1
@<TRIPOS>SUBSTRUCTURE
1   ZINC000001530599 1     RESIDUE    1   A     ZIN   1

@<TRIPOS>MOLECULE
ZINC000001530599
29    29    1     0     0
SMALL
USER_CHARGES
@<TRIPOS>ATOM
1      C1     -0.0187    1.5258    0.0104 C.3      1 ZINC000001530599   -0.1500
2      C2      0.0021   -0.0041    0.0020 C.3      1 ZINC000001530599   -0.1300
3      C3     -1.4333   -0.5336    0.0129 C.3      1 ZINC000001530599    0.1400
4      N4     -1.4134   -1.9985    0.0048 N.am     1 ZINC000001530599   -0.7400
5      C5     -2.5713   -2.6882    0.0122 C.2      1 ZINC000001530599    0.7200
6      O6     -3.6324   -2.0947    0.0255 O.2      1 ZINC000001530599   -0.6800
7      N7     -2.5531   -4.0358    0.0048 N.pl3    1 ZINC000001530599   -1.1500
8      S8     -3.9758   -4.8832    0.0138 S.o2     1 ZINC000001530599    2.6600
9      O9     -4.5871   -4.6276    1.2708 O.2      1 ZINC000001530599   -1.0200
10     O10    -4.6110   -4.6141   -1.2285 O.2      1 ZINC000001530599   -1.0200
11     C11    -3.5627   -6.5961    0.0007 C.ar     1 ZINC000001530599   -0.6200
12     C12    -3.4066   -7.2600   -1.2018 C.ar     1 ZINC000001530599   -0.0100
13     C13    -3.0826   -8.6035   -1.2128 C.ar     1 ZINC000001530599   -0.1400
14     C14    -2.9145   -9.2841   -0.0200 C.ar     1 ZINC000001530599    0.0000
15     Cl15   -2.5069  -10.9715   -0.0329 Cl       1 ZINC000001530599   -0.0800
16     C16    -3.0708   -8.6191    1.1831 C.ar     1 ZINC000001530599   -0.1400
17     C17    -3.3893   -7.2742    1.1928 C.ar     1 ZINC000001530599   -0.0100
18     H18     1.0039    1.9031    0.0027 H        1 ZINC000001530599    0.0500
19     H19    -0.5459    1.8868   -0.8726 H        1 ZINC000001530599    0.0600
20     H20    -0.5289    1.8773    0.9072 H        1 ZINC000001530599    0.0600
21     H21     0.5123   -0.3556   -0.8948 H        1 ZINC000001530599    0.0600
22     H22     0.5293   -0.3651    0.8851 H        1 ZINC000001530599    0.0600
23     H23    -1.9435   -0.1821    0.9097 H        1 ZINC000001530599    0.0500
24     H24    -1.9605   -0.1726   -0.8702 H        1 ZINC000001530599    0.0500
25     H25    -0.5669   -2.4720   -0.0058 H        1 ZINC000001530599    0.3900
26     H26    -3.5382   -6.7287   -2.1329 H        1 ZINC000001530599    0.1500
27     H27    -2.9610   -9.1222   -2.1523 H        1 ZINC000001530599    0.1400
28     H28    -2.9400   -9.1499    2.1146 H        1 ZINC000001530599    0.1400
29     H29    -3.5110   -6.7549    2.1319 H        1 ZINC000001530599    0.1500
@<TRIPOS>BOND
1     1     2     1
2     1     18    1
3     1     19    1
4     1     20    1
5     2     3     1
6     2     21    1
7     2     22    1
8     3     4     1
9     3     23    1
10    3     24    1
11    4     5     am
12    4     25    1
13    5     6     2
14    5     7     1
15    7     8     1
16    8     9     2
17    8     10    2
18    8     11    1
19    11    17    ar
20    11    12    ar
21    12    13    ar
22    12    26    1
23    13    14    ar
24    13    27    1
25    14    15    1
26    14    16    ar
27    16    17    ar
28    16    28    1
29    17    29    1
@<TRIPOS>SUBSTRUCTURE
1   ZINC000001530599 1     RESIDUE    1   A     ZIN   1

@<TRIPOS>MOLECULE
ZINC000001530599
29    29    1     0     0
SMALL
USER_CHARGES
@<TRIPOS>ATOM
1      C1     -0.0187    1.5258    0.0104 C.3      1 ZINC000001530599   -0.1500
2      C2      0.0021   -0.0041    0.0020 C.3      1 ZINC000001530599   -0.1400
3      C3     -1.4333   -0.5336    0.0129 C.3      1 ZINC000001530599    0.1400
4      N4     -1.4134   -1.9985    0.0048 N.pl3    1 ZINC000001530599   -0.7300
5      C5     -2.5934   -2.7013    0.0123 C.2      1 ZINC000001530599    0.6800
6      O6     -3.7723   -2.0418    0.0271 O.3      1 ZINC000001530599   -0.7500
7      N7     -2.5757   -4.0022    0.0052 N.am     1 ZINC000001530599   -1.1000
8      S8     -3.9984   -4.8496    0.0142 S.o2     1 ZINC000001530599    2.6800
9      O9     -4.6098   -4.5939    1.2712 O.2      1 ZINC000001530599   -1.0100
10     O10    -4.6337   -4.5805   -1.2281 O.2      1 ZINC000001530599   -1.0100
11     C11    -3.5854   -6.5624    0.0010 C.ar     1 ZINC000001530599   -0.6300
12     C12    -3.4293   -7.2263   -1.2014 C.ar     1 ZINC000001530599   -0.0100
13     C13    -3.1053   -8.5699   -1.2124 C.ar     1 ZINC000001530599   -0.1400
14     C14    -2.9371   -9.2504   -0.0196 C.ar     1 ZINC000001530599    0.0000
15     Cl15   -2.5296  -10.9378   -0.0325 Cl       1 ZINC000001530599   -0.0700
16     C16    -3.0935   -8.5854    1.1835 C.ar     1 ZINC000001530599   -0.1400
17     C17    -3.4120   -7.2405    1.1932 C.ar     1 ZINC000001530599   -0.0100
18     H18     1.0039    1.9031    0.0027 H        1 ZINC000001530599    0.0500
19     H19    -0.5459    1.8868   -0.8726 H        1 ZINC000001530599    0.0600
20     H20    -0.5289    1.8773    0.9072 H        1 ZINC000001530599    0.0600
21     H21     0.5123   -0.3556   -0.8948 H        1 ZINC000001530599    0.0600
22     H22     0.5293   -0.3651    0.8851 H        1 ZINC000001530599    0.0600
23     H23    -1.9435   -0.1821    0.9097 H        1 ZINC000001530599    0.0500
24     H24    -1.9605   -0.1726   -0.8702 H        1 ZINC000001530599    0.0500
25     H25    -0.5669   -2.4720   -0.0058 H        1 ZINC000001530599    0.3900
26     H26    -3.5609   -6.6951   -2.1325 H        1 ZINC000001530599    0.1500
27     H27    -2.9837   -9.0885   -2.1519 H        1 ZINC000001530599    0.1400
28     H28    -2.9627   -9.1162    2.1150 H        1 ZINC000001530599    0.1400
29     H29    -3.5337   -6.7212    2.1323 H        1 ZINC000001530599    0.1500
@<TRIPOS>BOND
1     1     2     1
2     1     18    1
3     1     19    1
4     1     20    1
5     2     3     1
6     2     21    1
7     2     22    1
8     3     4     1
9     3     23    1
10    3     24    1
11    4     5     1
12    4     25    1
13    5     6     1
14    5     7     2
15    7     8     am
16    8     9     2
17    8     10    2
18    8     11    1
19    11    17    ar
20    11    12    ar
21    12    13    ar
22    12    26    1
23    13    14    ar
24    13    27    1
25    14    15    1
26    14    16    ar
27    16    17    ar
28    16    28    1
29    17    29    1
@<TRIPOS>SUBSTRUCTURE
1   ZINC000001530599 1     RESIDUE    1   A     ZIN   1

@<TRIPOS>MOLECULE
ZINC000001530599
30    30    1     0     0
SMALL
USER_CHARGES
@<TRIPOS>ATOM
1      C1     -0.0187    1.5258    0.0104 C.3      1 ZINC000001530599   -0.1500
2      C2      0.0021   -0.0041    0.0020 C.3      1 ZINC000001530599   -0.1400
3      C3      0.7182   -0.4975   -1.2568 C.3      1 ZINC000001530599    0.1100
4      N4      0.7381   -1.9623   -1.2648 N.pl3    1 ZINC000001530599   -0.6600
5      C5      1.3322   -2.6353   -2.3043 C.2      1 ZINC000001530599    0.7000
6      O6      1.8982   -1.9465   -3.3192 O.3      1 ZINC000001530599   -0.5000
7      N7      1.3498   -3.9362   -2.3114 N.am     1 ZINC000001530599   -1.0500
8      S8      2.0662   -4.7477   -3.5647 S.o2     1 ZINC000001530599    2.6400
9      O9      1.2791   -4.4811   -4.7174 O.2      1 ZINC000001530599   -0.9800
10     O10     3.4553   -4.4583   -3.4882 O.2      1 ZINC000001530599   -0.9800
11     C11     1.8978   -6.4703   -3.2347 C.ar     1 ZINC000001530599   -0.6300
12     C12     2.8715   -7.1337   -2.5116 C.ar     1 ZINC000001530599    0.0000
13     C13     2.7400   -8.4849   -2.2525 C.ar     1 ZINC000001530599   -0.1300
14     C14     1.6336   -9.1736   -2.7169 C.ar     1 ZINC000001530599    0.0200
15     Cl15    1.4675  -10.8707   -2.3913 Cl       1 ZINC000001530599   -0.0500
16     C16     0.6594   -8.5091   -3.4405 C.ar     1 ZINC000001530599   -0.1300
17     C17     0.7893   -7.1567   -3.6941 C.ar     1 ZINC000001530599    0.0000
18     H18     1.0039    1.9031    0.0027 H        1 ZINC000001530599    0.0600
19     H19    -0.5459    1.8868   -0.8726 H        1 ZINC000001530599    0.0600
20     H20    -0.5289    1.8773    0.9072 H        1 ZINC000001530599    0.0600
21     H21     0.5293   -0.3651    0.8851 H        1 ZINC000001530599    0.0800
22     H22    -1.0205   -0.3814    0.0098 H        1 ZINC000001530599    0.0700
23     H23     0.1910   -0.1364   -2.1398 H        1 ZINC000001530599    0.0800
24     H24     1.7408   -0.1202   -1.2645 H        1 ZINC000001530599    0.0800
25     H25     0.3316   -2.4569   -0.5361 H        1 ZINC000001530599    0.4400
26     H26     2.2906   -2.5059   -4.0035 H        1 ZINC000001530599    0.4100
27     H27     3.7354   -6.5960   -2.1495 H        1 ZINC000001530599    0.1500
28     H28     3.5010   -9.0031   -1.6879 H        1 ZINC000001530599    0.1500
29     H29    -0.2044   -9.0463   -3.8035 H        1 ZINC000001530599    0.1500
30     H30     0.0287   -6.6378   -4.2587 H        1 ZINC000001530599    0.1500
@<TRIPOS>BOND
1     1     2     1
2     1     18    1
3     1     19    1
4     1     20    1
5     2     3     1
6     2     21    1
7     2     22    1
8     3     4     1
9     3     23    1
10    3     24    1
11    4     5     1
12    4     25    1
13    5     6     1
14    5     7     2
15    6     26    1
16    7     8     am
17    8     9     2
18    8     10    2
19    8     11    1
20    11    17    ar
21    11    12    ar
22    12    13    ar
23    12    27    1
24    13    14    ar
25    13    28    1
26    14    15    1
27    14    16    ar
28    16    17    ar
29    16    29    1
30    17    30    1
@<TRIPOS>SUBSTRUCTURE
1   ZINC000001530599 1     RESIDUE    1   A     ZIN   1
