@<TRIPOS>MOLECULE
ZINC000000001341
28    28    1     0     0
SMALL
USER_CHARGES
@<TRIPOS>ATOM
1      C1     -0.0187    1.5258    0.0104 C.3      1 ZINC000000001341   -0.1900
2      C2      0.0021   -0.0041    0.0020 C.3      1 ZINC000000001341   -0.0100
3      N3      0.6897   -0.4778   -1.2066 N.4      1 ZINC000000001341   -0.2100
4      C4     -0.0208    0.0088   -2.3967 C.3      1 ZINC000000001341   -0.0500
5      C5      2.0678    0.0307   -1.2170 C.3      1 ZINC000000001341   -0.0500
6      C6      0.7086   -1.8757   -1.2143 C.ar     1 ZINC000000001341   -0.0200
7      C7      0.1242   -2.5800   -0.1782 C.ar     1 ZINC000000001341   -0.1100
8      C8      0.1413   -3.9628   -0.1828 C.ar     1 ZINC000000001341   -0.0800
9      C9      0.7426   -4.6436   -1.2233 C.ar     1 ZINC000000001341   -0.1000
10     C10     1.3299   -3.9390   -2.2644 C.ar     1 ZINC000000001341    0.1400
11     O11     1.9218   -4.6067   -3.2895 O.3      1 ZINC000000001341   -0.4900
12     C12     1.3064   -2.5521   -2.2602 C.ar     1 ZINC000000001341   -0.1300
13     H13     1.0039    1.9031    0.0027 H        1 ZINC000000001341    0.0800
14     H14    -0.5459    1.8868   -0.8726 H        1 ZINC000000001341    0.0800
15     H15    -0.5289    1.8773    0.9072 H        1 ZINC000000001341    0.1100
16     H16     0.5293   -0.3651    0.8851 H        1 ZINC000000001341    0.1300
17     H17    -1.0205   -0.3814    0.0098 H        1 ZINC000000001341    0.1300
18     H18    -0.0356    1.0987   -2.3907 H        1 ZINC000000001341    0.1300
19     H19     0.4894   -0.3427   -3.2935 H        1 ZINC000000001341    0.1200
20     H20    -1.0434   -0.3685   -2.3890 H        1 ZINC000000001341    0.1200
21     H21     2.5950   -0.3304   -0.3340 H        1 ZINC000000001341    0.1200
22     H22     2.5780   -0.3209   -2.1138 H        1 ZINC000000001341    0.1200
23     H23     2.0530    1.1205   -1.2110 H        1 ZINC000000001341    0.1300
24     H24    -0.3461   -2.0494    0.6365 H        1 ZINC000000001341    0.1500
25     H25    -0.3156   -4.5107    0.6280 H        1 ZINC000000001341    0.1500
26     H26     0.7560   -5.7236   -1.2263 H        1 ZINC000000001341    0.1500
27     H27     1.3259   -4.8076   -4.0241 H        1 ZINC000000001341    0.4100
28     H28     1.7628   -2.0014   -3.0694 H        1 ZINC000000001341    0.1500
@<TRIPOS>BOND
1     1     2     1
2     1     13    1
3     1     14    1
4     1     15    1
5     2     3     1
6     2     16    1
7     2     17    1
8     3     4     1
9     3     5     1
10    3     6     1
11    4     18    1
12    4     19    1
13    4     20    1
14    5     21    1
15    5     22    1
16    5     23    1
17    6     12    ar
18    6     7     ar
19    7     8     ar
20    7     24    1
21    8     9     ar
22    8     25    1
23    9     10    ar
24    9     26    1
25    10    11    1
26    10    12    ar
27    11    27    1
28    12    28    1
@<TRIPOS>SUBSTRUCTURE
1   ZINC000000001341 1     RESIDUE    1   A     ZIN   1

@<TRIPOS>MOLECULE
ZINC000000001341
27    27    1     0     0
SMALL
USER_CHARGES
@<TRIPOS>ATOM
1      C1     -0.0187    1.5258    0.0104 C.3      1 ZINC000000001341   -0.1900
2      C2      0.0021   -0.0041    0.0020 C.3      1 ZINC000000001341   -0.0100
3      N3     -1.3761   -0.5125    0.0124 N.4      1 ZINC000000001341   -0.2000
4      C4     -2.0637   -0.0388    1.2211 C.3      1 ZINC000000001341   -0.0400
5      C5     -2.0866   -0.0259   -1.1777 C.3      1 ZINC000000001341   -0.0400
6      C6     -1.3571   -1.9104    0.0048 C.ar     1 ZINC000000001341    0.0000
7      C7     -0.1503   -2.5847   -0.0047 C.ar     1 ZINC000000001341   -0.2500
8      C8     -0.1282   -3.9674   -0.0123 C.ar     1 ZINC000000001341   -0.0600
9      C9     -1.3124   -4.6782   -0.0105 C.ar     1 ZINC000000001341   -0.2200
10     C10    -2.5250   -4.0038   -0.0010 C.ar     1 ZINC000000001341    0.2800
11     O11    -3.6916   -4.7009    0.0012 O.3      1 ZINC000000001341   -0.6900
12     C12    -2.5445   -2.6169    0.0123 C.ar     1 ZINC000000001341   -0.2500
13     H13     1.0039    1.9031    0.0027 H        1 ZINC000000001341    0.1000
14     H14    -0.5459    1.8868   -0.8726 H        1 ZINC000000001341    0.0800
15     H15    -0.5289    1.8773    0.9072 H        1 ZINC000000001341    0.0800
16     H16     0.5123   -0.3556   -0.8948 H        1 ZINC000000001341    0.1300
17     H17     0.5293   -0.3651    0.8851 H        1 ZINC000000001341    0.1300
18     H18    -2.0784    1.0511    1.2271 H        1 ZINC000000001341    0.1100
19     H19    -3.0863   -0.4161    1.2288 H        1 ZINC000000001341    0.1200
20     H20    -1.5365   -0.3999    2.1041 H        1 ZINC000000001341    0.1200
21     H21    -1.5764   -0.3774   -2.0745 H        1 ZINC000000001341    0.1200
22     H22    -3.1092   -0.4032   -1.1699 H        1 ZINC000000001341    0.1200
23     H23    -2.1014    1.0640   -1.1717 H        1 ZINC000000001341    0.1100
24     H24     0.7768   -2.0307   -0.0065 H        1 ZINC000000001341    0.1200
25     H25     0.8159   -4.4918   -0.0200 H        1 ZINC000000001341    0.1200
26     H26    -1.2946   -5.7580   -0.0168 H        1 ZINC000000001341    0.1100
27     H27    -3.4870   -2.0896    0.0197 H        1 ZINC000000001341    0.1100
@<TRIPOS>BOND
1     1     2     1
2     1     13    1
3     1     14    1
4     1     15    1
5     2     3     1
6     2     16    1
7     2     17    1
8     3     4     1
9     3     5     1
10    3     6     1
11    4     18    1
12    4     19    1
13    4     20    1
14    5     21    1
15    5     22    1
16    5     23    1
17    6     12    ar
18    6     7     ar
19    7     8     ar
20    7     24    1
21    8     9     ar
22    8     25    1
23    9     10    ar
24    9     26    1
25    10    11    1
26    10    12    ar
27    12    27    1
@<TRIPOS>SUBSTRUCTURE
1   ZINC000000001341 1     RESIDUE    1   A     ZIN   1
