@<TRIPOS>MOLECULE
ZINC000001530817
  37   37    0    0    0
SMALL
USER_CHARGES
NO_NAME
@<TRIPOS>ATOM
    1 C1       -0.0144     1.5218     0.0596 C.3    1 <0>      -0.1600
    2 C2        0.0053    -0.0080     0.0394 C.3    1 <0>      -0.1500
    3 C3       -1.4305    -0.5366     0.0458 C.3    1 <0>      -0.0100
    4 N4       -1.4116    -2.0054     0.0264 N.4    1 <0>      -0.5000
    5 H5       -0.9392    -2.3247    -0.8061 H      1 <0>       0.4400
    6 H6       -0.9241    -2.3462     0.8414 H      1 <0>       0.4300
    7 C7       -2.7901    -2.5129     0.0324 C.3    1 <0>       0.0100
    8 H8       -3.3424    -2.0744    -0.7987 H      1 <0>       0.1700
    9 C9       -3.4672    -2.1342     1.3511 C.3    1 <0>      -0.1800
   10 C10      -2.7737    -4.0130    -0.1111 C.2    1 <0>       0.5000
   11 O11      -1.7176    -4.6013    -0.2089 O.2    1 <0>      -0.5100
   12 N12      -3.9326    -4.7008    -0.1309 N.am   1 <0>      -0.6400
   13 C13      -3.9230    -6.0814    -0.3583 C.ar   1 <0>       0.1100
   14 C14      -2.8795    -6.8590     0.1260 C.ar   1 <0>      -0.1100
   15 C15      -2.8730    -8.2217    -0.1001 C.ar   1 <0>      -0.1100
   16 C16      -3.9037    -8.8114    -0.8082 C.ar   1 <0>      -0.1100
   17 C17      -4.9443    -8.0396    -1.2923 C.ar   1 <0>      -0.1000
   18 C18      -4.9601    -6.6778    -1.0639 C.ar   1 <0>      -0.1000
   19 C19      -6.0943    -5.8375    -1.5917 C.3    1 <0>      -0.1200
   20 H20       1.0084     1.8984     0.0551 H      1 <0>       0.0800
   21 H21      -0.5410     1.8900    -0.8208 H      1 <0>       0.0700
   22 H22      -0.5247     1.8668     0.9589 H      1 <0>       0.0700
   23 H23       0.5155    -0.3529    -0.8598 H      1 <0>       0.0900
   24 H24       0.5319    -0.3762     0.9199 H      1 <0>       0.0900
   25 H25      -1.9407    -0.1916     0.9450 H      1 <0>       0.1400
   26 H26      -1.9571    -0.1684    -0.8347 H      1 <0>       0.1300
   27 H27      -2.9149    -2.5728     2.1822 H      1 <0>       0.0900
   28 H28      -3.4791    -1.0492     1.4550 H      1 <0>       0.1000
   29 H29      -4.4901    -2.5108     1.3556 H      1 <0>       0.1100
   30 H30      -4.7733    -4.2387     0.0124 H      1 <0>       0.4200
   31 H31      -2.0737    -6.3988     0.6786 H      1 <0>       0.1400
   32 H32      -2.0617    -8.8270     0.2763 H      1 <0>       0.1300
   33 H33      -3.8961    -9.8770    -0.9840 H      1 <0>       0.1300
   34 H34      -5.7476    -8.5031    -1.8457 H      1 <0>       0.1300
   35 H35      -6.8872    -5.7874    -0.8455 H      1 <0>       0.0800
   36 H36      -5.7325    -4.8318    -1.8055 H      1 <0>       0.0600
   37 H37      -6.4835    -6.2856    -2.5060 H      1 <0>       0.0800
@<TRIPOS>BOND
   1    1    2 1
   2    1   20 1
   3    1   21 1
   4    1   22 1
   5    2    3 1
   6    2   23 1
   7    2   24 1
   8    3    4 1
   9    3   25 1
  10    3   26 1
  11    4    5 1
  12    4    6 1
  13    4    7 1
  14    7    8 1
  15    7    9 1
  16    7   10 1
  17    9   27 1
  18    9   28 1
  19    9   29 1
  20   10   11 2
  21   10   12 am
  22   12   13 1
  23   12   30 1
  24   13   18 ar
  25   13   14 ar
  26   14   15 ar
  27   14   31 1
  28   15   16 ar
  29   15   32 1
  30   16   17 ar
  31   16   33 1
  32   17   18 ar
  33   17   34 1
  34   18   19 1
  35   19   35 1
  36   19   36 1
  37   19   37 1

@<TRIPOS>MOLECULE
ZINC000001530817
  36   36    0    0    0
SMALL
USER_CHARGES
NO_NAME
@<TRIPOS>ATOM
    1 C1        0.0157     1.5145    -0.0213 C.3    1 <0>      -0.1500
    2 C2        0.0278    -0.0154    -0.0217 C.3    1 <0>      -0.1200
    3 C3        0.7650    -0.5200     1.2204 C.3    1 <0>       0.0600
    4 N4        0.7765    -1.9889     1.2200 N.3    1 <0>      -0.6700
    5 C5        1.4778    -2.5102     2.4009 C.3    1 <0>       0.0700
    6 H6        1.2908    -1.8562     3.2526 H      1 <0>       0.0700
    7 C7        2.9807    -2.5637     2.1193 C.3    1 <0>      -0.1400
    8 C8        0.9754    -3.8965     2.7122 C.2    1 <0>       0.5100
    9 O9        0.1176    -4.4006     2.0186 O.2    1 <0>      -0.5100
   10 N10       1.4792    -4.5761     3.7613 N.am   1 <0>      -0.6700
   11 C11       0.9480    -5.8235     4.1072 C.ar   1 <0>       0.1400
   12 C12       0.4908    -6.6836     3.1177 C.ar   1 <0>      -0.1200
   13 C13      -0.0332    -7.9143     3.4625 C.ar   1 <0>      -0.1100
   14 C14      -0.1031    -8.2899     4.7912 C.ar   1 <0>      -0.1300
   15 C15       0.3510    -7.4353     5.7793 C.ar   1 <0>      -0.1000
   16 C16       0.8820    -6.2063     5.4407 C.ar   1 <0>      -0.1100
   17 C17       1.3766    -5.2757     6.5180 C.3    1 <0>      -0.1200
   18 H18       1.0405     1.8859    -0.0311 H      1 <0>       0.0600
   19 H19      -0.5095     1.8740    -0.9062 H      1 <0>       0.0600
   20 H20      -0.4924     1.8736     0.8737 H      1 <0>       0.0500
   21 H21      -0.9970    -0.3868    -0.0119 H      1 <0>       0.0600
   22 H22       0.5359    -0.3745    -0.9167 H      1 <0>       0.0700
   23 H23       1.7897    -0.1486     1.2106 H      1 <0>       0.0700
   24 H24       0.2569    -0.1609     2.1154 H      1 <0>       0.0300
   25 H25      -0.1609    -2.3579     1.1640 H      1 <0>       0.3600
   26 H26       3.3440    -1.5610     1.8941 H      1 <0>       0.0700
   27 H27       3.5010    -2.9505     2.9955 H      1 <0>       0.0600
   28 H28       3.1677    -3.2177     1.2676 H      1 <0>       0.0700
   29 H29       2.2102    -4.2004     4.2766 H      1 <0>       0.4100
   30 H30       0.5444    -6.3905     2.0796 H      1 <0>       0.1400
   31 H31      -0.3890    -8.5837     2.6933 H      1 <0>       0.1300
   32 H32      -0.5135    -9.2525     5.0582 H      1 <0>       0.1200
   33 H33       0.2944    -7.7312     6.8164 H      1 <0>       0.1300
   34 H34       2.4307    -5.4731     6.7128 H      1 <0>       0.0700
   35 H35       1.2549    -4.2433     6.1903 H      1 <0>       0.0600
   36 H36       0.8020    -5.4376     7.4300 H      1 <0>       0.0700
@<TRIPOS>BOND
   1    1    2 1
   2    1   18 1
   3    1   19 1
   4    1   20 1
   5    2    3 1
   6    2   21 1
   7    2   22 1
   8    3    4 1
   9    3   23 1
  10    3   24 1
  11    4    5 1
  12    4   25 1
  13    5    6 1
  14    5    7 1
  15    5    8 1
  16    7   26 1
  17    7   27 1
  18    7   28 1
  19    8    9 2
  20    8   10 am
  21   10   11 1
  22   10   29 1
  23   11   16 ar
  24   11   12 ar
  25   12   13 ar
  26   12   30 1
  27   13   14 ar
  28   13   31 1
  29   14   15 ar
  30   14   32 1
  31   15   16 ar
  32   15   33 1
  33   16   17 1
  34   17   34 1
  35   17   35 1
  36   17   36 1
