@<TRIPOS>MOLECULE
ZINC000000896731
  28   29    0    0    0
SMALL
USER_CHARGES
NO_NAME
@<TRIPOS>ATOM
    1 C1        0.1076     1.4833    -0.2692 C.3    1 <0>      -0.1700
    2 C2        0.0395    -0.0135     0.0403 C.3    1 <0>       0.2600
    3 H3        0.5031    -0.2059     1.0078 H      1 <0>       0.1200
    4 C4        0.7722    -0.7815    -1.0295 C.2    1 <0>      -0.1800
    5 C5        2.0315    -1.1608    -0.9409 C.2    1 <0>      -0.1100
    6 C6        2.5331    -1.8917    -2.0934 C.ar   1 <0>      -0.0800
    7 C7        3.8164    -2.4335    -2.3202 C.ar   1 <0>      -0.0800
    8 C8        4.0925    -3.0918    -3.4793 C.ar   1 <0>      -0.1200
    9 C9        3.1179    -3.2410    -4.4563 C.ar   1 <0>      -0.1000
   10 C10       1.8588    -2.7235    -4.2617 C.ar   1 <0>      -0.0900
   11 C11       1.5535    -2.0438    -3.0787 C.ar   1 <0>      -0.1700
   12 S12       0.0558    -1.2903    -2.5464 S.3    1 <0>       0.1600
   13 N13      -1.3612    -0.4415     0.0761 N.am   1 <0>      -0.4900
   14 O14      -1.8673    -1.1132     1.2152 O.3    1 <0>      -0.3200
   15 C15      -2.1680    -0.1959    -0.9752 C.2    1 <0>       0.6900
   16 N16      -3.4294    -0.6705    -0.9819 N.am   1 <0>      -0.8600
   17 O17      -1.7579     0.4539    -1.9175 O.2    1 <0>      -0.5500
   18 H18       1.1497     1.8018    -0.2959 H      1 <0>       0.0800
   19 H19      -0.3560     1.6758    -1.2368 H      1 <0>       0.1000
   20 H20      -0.4224     2.0388     0.5045 H      1 <0>       0.0700
   21 H21       2.6442    -0.9449    -0.0781 H      1 <0>       0.1400
   22 H22       4.5848    -2.3248    -1.5691 H      1 <0>       0.1300
   23 H23       5.0788    -3.5013    -3.6403 H      1 <0>       0.1300
   24 H24       3.3492    -3.7646    -5.3721 H      1 <0>       0.1300
   25 H25       1.1040    -2.8419    -5.0251 H      1 <0>       0.1200
   26 H26      -2.7767    -1.4264     1.1154 H      1 <0>       0.3800
   27 H27      -3.7811    -1.1241    -0.2000 H      1 <0>       0.3900
   28 H28      -3.9855    -0.5585    -1.7687 H      1 <0>       0.4200
@<TRIPOS>BOND
   1    1    2 1
   2    1   18 1
   3    1   19 1
   4    1   20 1
   5    2    3 1
   6    2    4 1
   7    2   13 1
   8    4   12 1
   9    4    5 2
  10    5    6 1
  11    5   21 1
  12    6   11 ar
  13    6    7 ar
  14    7    8 ar
  15    7   22 1
  16    8    9 ar
  17    8   23 1
  18    9   10 ar
  19    9   24 1
  20   10   11 ar
  21   10   25 1
  22   11   12 1
  23   13   14 1
  24   13   15 am
  25   14   26 1
  26   15   16 am
  27   15   17 2
  28   16   27 1
  29   16   28 1

@<TRIPOS>MOLECULE
ZINC000000896731
  27   28    0    0    0
SMALL
USER_CHARGES
NO_NAME
@<TRIPOS>ATOM
    1 C1        0.4660     1.4309    -0.2307 C.3    1 <0>      -0.1400
    2 C2        0.0274    -0.0176    -0.0062 C.3    1 <0>       0.2200
    3 H3       -1.0496    -0.0981    -0.1535 H      1 <0>       0.0900
    4 C4        0.3748    -0.4355     1.3994 C.2    1 <0>      -0.1300
    5 C5       -0.5059    -0.5856     2.3687 C.2    1 <0>      -0.1600
    6 C6        0.0541    -0.9956     3.6463 C.ar   1 <0>      -0.0700
    7 C7       -0.6002    -1.2426     4.8722 C.ar   1 <0>      -0.0900
    8 C8        0.1104    -1.6229     5.9693 C.ar   1 <0>      -0.1300
    9 C9        1.4885    -1.7739     5.9008 C.ar   1 <0>      -0.1200
   10 C10       2.1518    -1.5404     4.7192 C.ar   1 <0>      -0.0800
   11 C11       1.4418    -1.1490     3.5801 C.ar   1 <0>      -0.1900
   12 S12       2.0003    -0.7910     1.9510 S.3    1 <0>       0.2000
   13 N13       0.7173    -0.8900    -0.9597 N.am   1 <0>      -0.4400
   14 O14       2.1309    -0.8728    -1.0405 O.3    1 <0>      -0.6800
   15 C15       0.0065    -1.7091    -1.7599 C.2    1 <0>       0.6800
   16 N16       0.6420    -2.5895    -2.5583 N.am   1 <0>      -0.8700
   17 O17      -1.2081    -1.6538    -1.7615 O.2    1 <0>      -0.6700
   18 H18       1.5430     1.5114    -0.0833 H      1 <0>       0.0700
   19 H19       0.2148     1.7332    -1.2473 H      1 <0>       0.0500
   20 H20      -0.0473     2.0801     0.4787 H      1 <0>       0.0500
   21 H21      -1.5629    -0.4166     2.2249 H      1 <0>       0.1400
   22 H22      -1.6720    -1.1288     4.9404 H      1 <0>       0.1200
   23 H23      -0.4027    -1.8084     6.9013 H      1 <0>       0.1200
   24 H24       2.0414    -2.0754     6.7782 H      1 <0>       0.1200
   25 H25       3.2242    -1.6589     4.6711 H      1 <0>       0.1200
   26 H26       1.6110    -2.6336    -2.5570 H      1 <0>       0.4000
   27 H27       0.1305    -3.1790    -3.1342 H      1 <0>       0.3900
@<TRIPOS>BOND
   1    1    2 1
   2    1   18 1
   3    1   19 1
   4    1   20 1
   5    2    3 1
   6    2    4 1
   7    2   13 1
   8    4   12 1
   9    4    5 2
  10    5    6 1
  11    5   21 1
  12    6   11 ar
  13    6    7 ar
  14    7    8 ar
  15    7   22 1
  16    8    9 ar
  17    8   23 1
  18    9   10 ar
  19    9   24 1
  20   10   11 ar
  21   10   25 1
  22   11   12 1
  23   13   14 1
  24   13   15 am
  25   15   16 am
  26   15   17 2
  27   16   26 1
  28   16   27 1
