@<TRIPOS>MOLECULE
ZINC000019632633
  32   32    0    0    0
SMALL
USER_CHARGES
NO_NAME
@<TRIPOS>ATOM
    1 C1        0.4672    -1.2607     0.5022 C.1    1 <0>      -0.0600
    2 C2        0.3327    -0.1040     0.3531 C.1    1 <0>      -0.3000
    3 C3        0.1641     1.3463     0.1661 C.3    1 <0>       0.1200
    4 N4        1.4836     1.9825     0.0555 N.4    1 <0>      -0.3900
    5 H5        2.0438     1.7367     0.8579 H      1 <0>       0.4300
    6 C6        2.1502     1.5176    -1.1682 C.3    1 <0>      -0.0500
    7 C7        1.3208     3.4414     0.0003 C.3    1 <0>       0.0300
    8 H8        0.6462     3.7011    -0.8155 H      1 <0>       0.1400
    9 C9        2.6825     4.0980    -0.2352 C.3    1 <0>      -0.1800
   10 C10       0.7364     3.9397     1.3236 C.3    1 <0>      -0.1000
   11 C11       0.4887     5.4236     1.2362 C.ar   1 <0>      -0.1100
   12 C12       1.4349     6.3116     1.7128 C.ar   1 <0>      -0.1100
   13 C13       1.2077     7.6728     1.6326 C.ar   1 <0>      -0.1100
   14 C14       0.0344     8.1460     1.0754 C.ar   1 <0>      -0.1000
   15 C15      -0.9114     7.2581     0.5980 C.ar   1 <0>      -0.1100
   16 C16      -0.6823     5.8970     0.6743 C.ar   1 <0>      -0.1100
   17 H17       0.5874    -2.2952     0.6356 H      1 <0>       0.2400
   18 H18      -0.4060     1.5315    -0.7443 H      1 <0>       0.1500
   19 H19      -0.3697     1.7632     1.0202 H      1 <0>       0.1500
   20 H20       2.2711     0.4350    -1.1273 H      1 <0>       0.1200
   21 H21       1.5450     1.7831    -2.0350 H      1 <0>       0.1200
   22 H22       3.1293     1.9896    -1.2503 H      1 <0>       0.1300
   23 H23       3.3571     3.8382     0.5806 H      1 <0>       0.0800
   24 H24       3.0988     3.7429    -1.1779 H      1 <0>       0.0800
   25 H25       2.5617     5.1805    -0.2762 H      1 <0>       0.1100
   26 H26      -0.2040     3.4255     1.5221 H      1 <0>       0.1000
   27 H27       1.4395     3.7357     2.1311 H      1 <0>       0.1000
   28 H28       2.3515     5.9418     2.1481 H      1 <0>       0.1200
   29 H29       1.9466     8.3665     2.0055 H      1 <0>       0.1300
   30 H30      -0.1434     9.2095     1.0134 H      1 <0>       0.1300
   31 H31      -1.8282     7.6278     0.1630 H      1 <0>       0.1300
   32 H32      -1.4212     5.2033     0.3013 H      1 <0>       0.1200
@<TRIPOS>BOND
   1    1    2 3
   2    1   17 1
   3    2    3 1
   4    3    4 1
   5    3   18 1
   6    3   19 1
   7    4    5 1
   8    4    6 1
   9    4    7 1
  10    6   20 1
  11    6   21 1
  12    6   22 1
  13    7    8 1
  14    7    9 1
  15    7   10 1
  16    9   23 1
  17    9   24 1
  18    9   25 1
  19   10   11 1
  20   10   26 1
  21   10   27 1
  22   11   16 ar
  23   11   12 ar
  24   12   13 ar
  25   12   28 1
  26   13   14 ar
  27   13   29 1
  28   14   15 ar
  29   14   30 1
  30   15   16 ar
  31   15   31 1
  32   16   32 1

@<TRIPOS>MOLECULE
ZINC000019632633
  32   32    0    0    0
SMALL
USER_CHARGES
NO_NAME
@<TRIPOS>ATOM
    1 C1        0.1469    -1.2419     0.0252 C.1    1 <0>      -0.0600
    2 C2        0.0852    -0.0698     0.0549 C.1    1 <0>      -0.3000
    3 C3        0.0080     1.3997     0.0922 C.3    1 <0>       0.1200
    4 N4        1.3543     1.9650    -0.0682 N.4    1 <0>      -0.3900
    5 H5        1.7716     1.6054    -0.9135 H      1 <0>       0.4300
    6 C6        2.1834     1.5901     1.0851 C.3    1 <0>      -0.0500
    7 C7        1.2640     3.4289    -0.1511 C.3    1 <0>       0.0300
    8 H8        0.8390     3.8196     0.7735 H      1 <0>       0.1400
    9 C9        0.3685     3.8187    -1.3288 C.3    1 <0>      -0.1900
   10 C10       2.6621     4.0152    -0.3575 C.3    1 <0>      -0.1000
   11 C11       2.5878     5.5196    -0.3105 C.ar   1 <0>      -0.1100
   12 C12       2.5009     6.2444    -1.4844 C.ar   1 <0>      -0.1100
   13 C13       2.4328     7.6244    -1.4413 C.ar   1 <0>      -0.1100
   14 C14       2.4511     8.2796    -0.2242 C.ar   1 <0>      -0.1000
   15 C15       2.5371     7.5548     0.9497 C.ar   1 <0>      -0.1100
   16 C16       2.6009     6.1746     0.9068 C.ar   1 <0>      -0.1100
   17 H17       0.2020    -2.2901    -0.0014 H      1 <0>       0.2400
   18 H18      -0.6322     1.7505    -0.7173 H      1 <0>       0.1500
   19 H19      -0.4081     1.7175     1.0482 H      1 <0>       0.1500
   20 H20       3.2094     1.9171     0.9166 H      1 <0>       0.1300
   21 H21       1.7928     2.0674     1.9838 H      1 <0>       0.1200
   22 H22       2.1631     0.5075     1.2106 H      1 <0>       0.1200
   23 H23       0.7935     3.4280    -2.2533 H      1 <0>       0.0800
   24 H24      -0.6275     3.4010    -1.1817 H      1 <0>       0.0800
   25 H25       0.3015     4.9049    -1.3903 H      1 <0>       0.1100
   26 H26       3.3253     3.6594     0.4308 H      1 <0>       0.1000
   27 H27       3.0485     3.7006    -1.3270 H      1 <0>       0.1000
   28 H28       2.4866     5.7325    -2.4353 H      1 <0>       0.1200
   29 H29       2.3656     8.1907    -2.3585 H      1 <0>       0.1300
   30 H30       2.3986     9.3578    -0.1906 H      1 <0>       0.1300
   31 H31       2.5517     8.0667     1.9006 H      1 <0>       0.1300
   32 H32       2.6680     5.6083     1.8240 H      1 <0>       0.1200
@<TRIPOS>BOND
   1    1    2 3
   2    1   17 1
   3    2    3 1
   4    3    4 1
   5    3   18 1
   6    3   19 1
   7    4    5 1
   8    4    6 1
   9    4    7 1
  10    6   20 1
  11    6   21 1
  12    6   22 1
  13    7    8 1
  14    7    9 1
  15    7   10 1
  16    9   23 1
  17    9   24 1
  18    9   25 1
  19   10   11 1
  20   10   26 1
  21   10   27 1
  22   11   16 ar
  23   11   12 ar
  24   12   13 ar
  25   12   28 1
  26   13   14 ar
  27   13   29 1
  28   14   15 ar
  29   14   30 1
  30   15   16 ar
  31   15   31 1
  32   16   32 1

@<TRIPOS>MOLECULE
ZINC000019632633
  31   31    0    0    0
SMALL
USER_CHARGES
NO_NAME
@<TRIPOS>ATOM
    1 C1        0.0180    -1.1779    -0.0044 C.1    1 <0>      -0.2000
    2 C2        0.0021    -0.0041     0.0020 C.1    1 <0>      -0.1800
    3 C3       -0.0179     1.4678     0.0101 C.3    1 <0>       0.1600
    4 N4        1.3603     1.9762    -0.0003 N.3    1 <0>      -0.5300
    5 C5        2.0349     1.6428    -1.2619 C.3    1 <0>       0.0100
    6 C6        1.3890     3.4243     0.2453 C.3    1 <0>       0.0900
    7 H7        0.8667     3.6453     1.1762 H      1 <0>       0.0900
    8 C8        0.7001     4.1515    -0.9111 C.3    1 <0>      -0.1900
    9 C9        2.8410     3.8949     0.3511 C.3    1 <0>      -0.0800
   10 C10       3.4839     3.2720     1.5634 C.ar   1 <0>      -0.0700
   11 C11       3.4235     3.9155     2.7853 C.ar   1 <0>      -0.1200
   12 C12       4.0132     3.3442     3.8973 C.ar   1 <0>      -0.1200
   13 C13       4.6630     2.1290     3.7876 C.ar   1 <0>      -0.1300
   14 C14       4.7227     1.4851     2.5658 C.ar   1 <0>      -0.1200
   15 C15       4.1293     2.0544     1.4547 C.ar   1 <0>      -0.0900
   16 H16       0.0322    -2.2278    -0.0102 H      1 <0>       0.2200
   17 H17      -0.5451     1.8289    -0.8729 H      1 <0>       0.0600
   18 H18      -0.5281     1.8193     0.9069 H      1 <0>       0.1000
   19 H19       1.4910     2.0901    -2.0940 H      1 <0>       0.0300
   20 H20       3.0533     2.0309    -1.2430 H      1 <0>       0.0700
   21 H21       2.0609     0.5601    -1.3849 H      1 <0>       0.0700
   22 H22      -0.3343     3.8163    -0.9864 H      1 <0>       0.0600
   23 H23       0.7215     5.2260    -0.7288 H      1 <0>       0.0700
   24 H24       1.2224     3.9305    -1.8419 H      1 <0>       0.0600
   25 H25       3.3862     3.5950    -0.5438 H      1 <0>       0.0800
   26 H26       2.8652     4.9806     0.4445 H      1 <0>       0.0800
   27 H27       2.9158     4.8649     2.8711 H      1 <0>       0.1200
   28 H28       3.9666     3.8473     4.8518 H      1 <0>       0.1200
   29 H29       5.1244     1.6830     4.6562 H      1 <0>       0.1200
   30 H30       5.2307     0.5359     2.4800 H      1 <0>       0.1200
   31 H31       4.1759     1.5512     0.5002 H      1 <0>       0.1200
@<TRIPOS>BOND
   1    1    2 3
   2    1   16 1
   3    2    3 1
   4    3    4 1
   5    3   17 1
   6    3   18 1
   7    4    5 1
   8    4    6 1
   9    5   19 1
  10    5   20 1
  11    5   21 1
  12    6    7 1
  13    6    8 1
  14    6    9 1
  15    8   22 1
  16    8   23 1
  17    8   24 1
  18    9   10 1
  19    9   25 1
  20    9   26 1
  21   10   15 ar
  22   10   11 ar
  23   11   12 ar
  24   11   27 1
  25   12   13 ar
  26   12   28 1
  27   13   14 ar
  28   13   29 1
  29   14   15 ar
  30   14   30 1
  31   15   31 1
