@<TRIPOS>MOLECULE
ZINC000000002043
40    41    1     0     0
SMALL
USER_CHARGES
@<TRIPOS>ATOM
1      C1     -0.0178    1.4648    0.0101 C.3      1 ZINC000000002043   -0.0500
2      N2      0.0021   -0.0041    0.0020 N.4      1 ZINC000000002043   -0.3900
3      H3      0.4744   -0.3295   -0.8281 H        1 ZINC000000002043    0.4400
4      C4      0.7126   -0.4907    1.1921 C.3      1 ZINC000000002043   -0.0500
5      C5     -1.3761   -0.5125    0.0124 C.3      1 ZINC000000002043    0.0000
6      C6     -2.0780   -0.1101   -1.2861 C.3      1 ZINC000000002043    0.0200
7      O7     -1.4443   -0.7583   -2.3908 O.3      1 ZINC000000002043   -0.3700
8      C8     -2.0264   -0.4484   -3.6585 C.3      1 ZINC000000002043    0.2000
9      H9     -3.0885   -0.2402   -3.5294 H        1 ZINC000000002043    0.1000
10     C10    -1.8538   -1.6200   -4.5904 C.ar     1 ZINC000000002043   -0.0900
11     C11    -0.7136   -2.3983   -4.5180 C.ar     1 ZINC000000002043   -0.0600
12     C12    -0.5547   -3.4730   -5.3725 C.ar     1 ZINC000000002043   -0.1200
13     C13    -1.5371   -3.7698   -6.3003 C.ar     1 ZINC000000002043   -0.0200
14     Cl14   -1.3386   -5.1199   -7.3735 Cl       1 ZINC000000002043   -0.0600
15     C15    -2.6780   -2.9906   -6.3723 C.ar     1 ZINC000000002043   -0.1100
16     C16    -2.8383   -1.9195   -5.5135 C.ar     1 ZINC000000002043   -0.0900
17     C17    -1.3445    0.7622   -4.2419 C.ar     1 ZINC000000002043    0.0900
18     C18    -2.0606    1.9308   -4.4180 C.ar     1 ZINC000000002043   -0.1600
19     C19    -1.4236    3.0393   -4.9552 C.ar     1 ZINC000000002043   -0.0700
20     C20    -0.0845    2.9297   -5.2965 C.ar     1 ZINC000000002043   -0.1600
21     C21     0.5667    1.7279   -5.0915 C.ar     1 ZINC000000002043    0.1000
22     N22    -0.0697    0.6957   -4.5735 N.ar     1 ZINC000000002043   -0.4600
23     H23     1.0047    1.8421    0.0024 H        1 ZINC000000002043    0.1200
24     H24    -0.5450    1.8259   -0.8730 H        1 ZINC000000002043    0.1200
25     H25    -0.5280    1.8163    0.9069 H        1 ZINC000000002043    0.1200
26     H26     0.2024   -0.1392    2.0889 H        1 ZINC000000002043    0.1200
27     H27     0.7273   -1.5806    1.1861 H        1 ZINC000000002043    0.1200
28     H28     1.7352   -0.1134    1.1844 H        1 ZINC000000002043    0.1200
29     H29    -1.3618   -1.5992    0.0960 H        1 ZINC000000002043    0.1400
30     H30    -1.9129   -0.0898    0.8617 H        1 ZINC000000002043    0.1400
31     H31    -3.1251   -0.4096   -1.2411 H        1 ZINC000000002043    0.1000
32     H32    -2.0144    0.9705   -1.4137 H        1 ZINC000000002043    0.0700
33     H33     0.0534   -2.1663   -3.7939 H        1 ZINC000000002043    0.1300
34     H34     0.3363   -4.0808   -5.3161 H        1 ZINC000000002043    0.1400
35     H35    -3.4451   -3.2216   -7.0966 H        1 ZINC000000002043    0.1400
36     H36    -3.7291   -1.3113   -5.5693 H        1 ZINC000000002043    0.1300
37     H37    -3.1033    1.9802   -4.1410 H        1 ZINC000000002043    0.1400
38     H38    -1.9582    3.9657   -5.1045 H        1 ZINC000000002043    0.1400
39     H39     0.4432    3.7727   -5.7177 H        1 ZINC000000002043    0.1400
40     H40     1.6099    1.6342   -5.3550 H        1 ZINC000000002043    0.1600
@<TRIPOS>BOND
1     1     2     1
2     1     23    1
3     1     24    1
4     1     25    1
5     2     3     1
6     2     4     1
7     2     5     1
8     4     26    1
9     4     27    1
10    4     28    1
11    5     6     1
12    5     29    1
13    5     30    1
14    6     7     1
15    6     31    1
16    6     32    1
17    7     8     1
18    8     9     1
19    8     10    1
20    8     17    1
21    10    16    ar
22    10    11    ar
23    11    12    ar
24    11    33    1
25    12    13    ar
26    12    34    1
27    13    14    1
28    13    15    ar
29    15    16    ar
30    15    35    1
31    16    36    1
32    17    22    ar
33    17    18    ar
34    18    19    ar
35    18    37    1
36    19    20    ar
37    19    38    1
38    20    21    ar
39    20    39    1
40    21    22    ar
41    21    40    1
@<TRIPOS>SUBSTRUCTURE
1   ZINC000000002043 1     RESIDUE    1   A     ZIN   1

@<TRIPOS>MOLECULE
ZINC000000002043
39    40    1     0     0
SMALL
USER_CHARGES
@<TRIPOS>ATOM
1      C1      0.7021    0.0035   -1.1577 C.3      1 ZINC000000002043    0.0200
2      N2      0.0014   -0.0157    0.1333 N.3      1 ZINC000000002043   -0.5400
3      C3     -0.0546    1.3290    0.7219 C.3      1 ZINC000000002043    0.0300
4      C4     -1.3452   -0.5855   -0.0071 C.3      1 ZINC000000002043    0.0600
5      C5     -1.2439   -2.1060   -0.1440 C.3      1 ZINC000000002043    0.0600
6      O6     -0.7133   -2.6586    1.0623 O.3      1 ZINC000000002043   -0.3400
7      C7     -0.5772   -4.0810    1.0394 C.3      1 ZINC000000002043    0.1800
8      H8     -1.3426   -4.5088    0.3920 H        1 ZINC000000002043    0.0800
9      C9     -0.7396   -4.6237    2.4358 C.ar     1 ZINC000000002043   -0.0800
10     C10    -0.2795   -3.8963    3.5176 C.ar     1 ZINC000000002043   -0.0500
11     C11    -0.4281   -4.3935    4.7986 C.ar     1 ZINC000000002043   -0.1200
12     C12    -1.0375   -5.6195    4.9981 C.ar     1 ZINC000000002043   -0.0300
13     Cl13   -1.2251   -6.2444    6.6068 Cl       1 ZINC000000002043   -0.0700
14     C14    -1.4978   -6.3470    3.9151 C.ar     1 ZINC000000002043   -0.1200
15     C15    -1.3536   -5.8461    2.6349 C.ar     1 ZINC000000002043   -0.1000
16     C16     0.7870   -4.4466    0.5138 C.ar     1 ZINC000000002043    0.1100
17     C17     0.8979   -5.1213   -0.6870 C.ar     1 ZINC000000002043   -0.1700
18     C18     2.1579   -5.4527   -1.1621 C.ar     1 ZINC000000002043   -0.0800
19     C19     3.2635   -5.0913   -0.4079 C.ar     1 ZINC000000002043   -0.1700
20     C20     3.0746   -4.4174    0.7841 C.ar     1 ZINC000000002043    0.1000
21     N21     1.8615   -4.1142    1.2025 N.ar     1 ZINC000000002043   -0.4500
22     H22     1.6964    0.4301   -1.0251 H        1 ZINC000000002043    0.0700
23     H23     0.7911   -1.0141   -1.5380 H        1 ZINC000000002043    0.0600
24     H24     0.1388    0.6088   -1.8679 H        1 ZINC000000002043    0.0200
25     H25    -0.5080    2.0187    0.0099 H        1 ZINC000000002043    0.0200
26     H26    -0.6525    1.3022    1.6329 H        1 ZINC000000002043    0.0700
27     H27     0.9550    1.6639    0.9597 H        1 ZINC000000002043    0.0700
28     H28    -1.9378   -0.3388    0.8739 H        1 ZINC000000002043    0.0800
29     H29    -1.8241   -0.1719   -0.8946 H        1 ZINC000000002043    0.0500
30     H30    -2.2348   -2.5210   -0.3287 H        1 ZINC000000002043    0.0600
31     H31    -0.5857   -2.3528   -0.9770 H        1 ZINC000000002043    0.0500
32     H32     0.1965   -2.9395    3.3617 H        1 ZINC000000002043    0.1400
33     H33    -0.0683   -3.8254    5.6437 H        1 ZINC000000002043    0.1300
34     H34    -1.9733   -7.3042    4.0702 H        1 ZINC000000002043    0.1300
35     H35    -1.7132   -6.4138    1.7894 H        1 ZINC000000002043    0.1300
36     H36     0.0145   -5.3875   -1.2483 H        1 ZINC000000002043    0.1300
37     H37     2.2750   -5.9802   -2.0972 H        1 ZINC000000002043    0.1400
38     H38     4.2598   -5.3335   -0.7471 H        1 ZINC000000002043    0.1400
39     H39     3.9307   -4.1326    1.3777 H        1 ZINC000000002043    0.1600
@<TRIPOS>BOND
1     1     2     1
2     1     22    1
3     1     23    1
4     1     24    1
5     2     3     1
6     2     4     1
7     3     25    1
8     3     26    1
9     3     27    1
10    4     5     1
11    4     28    1
12    4     29    1
13    5     6     1
14    5     30    1
15    5     31    1
16    6     7     1
17    7     8     1
18    7     9     1
19    7     16    1
20    9     15    ar
21    9     10    ar
22    10    11    ar
23    10    32    1
24    11    12    ar
25    11    33    1
26    12    13    1
27    12    14    ar
28    14    15    ar
29    14    34    1
30    15    35    1
31    16    21    ar
32    16    17    ar
33    17    18    ar
34    17    36    1
35    18    19    ar
36    18    37    1
37    19    20    ar
38    19    38    1
39    20    21    ar
40    20    39    1
@<TRIPOS>SUBSTRUCTURE
1   ZINC000000002043 1     RESIDUE    1   A     ZIN   1
