@<TRIPOS>MOLECULE
ZINC000003830387
21    20    1     0     0
SMALL
USER_CHARGES
@<TRIPOS>ATOM
1      O1      0.0021   -0.0041    0.0020 O.2      1 ZINC000003830387    0.0700
2      N2     -0.0144    1.2138    0.0087 N.2      1 ZINC000003830387   -0.1300
3      N3      1.0938    1.8739    0.0017 N.am     1 ZINC000003830387   -0.4200
4      C4      2.3723    1.1588   -0.0144 C.3      1 ZINC000003830387    0.0500
5      C5      2.8311    0.9021    1.4225 C.3      1 ZINC000003830387   -0.0500
6      Cl6     4.4046    0.0219    1.4027 Cl       1 ZINC000003830387   -0.1500
7      C7      1.0755    3.2215    0.0091 C.2      1 ZINC000003830387    0.7200
8      O8      2.1193    3.8432    0.0025 O.2      1 ZINC000003830387   -0.5300
9      N9     -0.1006    3.8795    0.0239 N.am     1 ZINC000003830387   -0.7200
10     C10    -0.1205    5.3443    0.0319 C.3      1 ZINC000003830387    0.1200
11     C11    -1.5697    5.8346    0.0484 C.3      1 ZINC000003830387   -0.0500
12     Cl12   -1.5942    7.6374    0.0583 Cl       1 ZINC000003830387   -0.1500
13     H13     2.2500    0.2075   -0.5322 H        1 ZINC000003830387    0.1200
14     H14     3.1189    1.7609   -0.5321 H        1 ZINC000003830387    0.1200
15     H15     2.9534    1.8534    1.9403 H        1 ZINC000003830387    0.1000
16     H16     2.0845    0.3000    1.9402 H        1 ZINC000003830387    0.1000
17     H17    -0.9340    3.3831    0.0291 H        1 ZINC000003830387    0.4100
18     H18     0.3968    5.7098    0.9190 H        1 ZINC000003830387    0.0900
19     H19     0.3798    5.7194   -0.8609 H        1 ZINC000003830387    0.0900
20     H20    -2.0871    5.4691   -0.8387 H        1 ZINC000003830387    0.1000
21     H21    -2.0701    5.4596    0.9412 H        1 ZINC000003830387    0.1000
@<TRIPOS>BOND
1     1     2     2
2     2     3     1
3     3     4     1
4     3     7     am
5     4     5     1
6     4     13    1
7     4     14    1
8     5     6     1
9     5     15    1
10    5     16    1
11    7     8     2
12    7     9     am
13    9     10    1
14    9     17    1
15    10    11    1
16    10    18    1
17    10    19    1
18    11    12    1
19    11    20    1
20    11    21    1
@<TRIPOS>SUBSTRUCTURE
1   ZINC000003830387 1     RESIDUE    1   A     ZIN   1
