@<TRIPOS>MOLECULE
ZINC000019702309
25    27    1     0     0
SMALL
USER_CHARGES
@<TRIPOS>ATOM
1      Cl1    -2.8330    3.9509    1.8114 Cl       1 ZINC000019702309   -0.0200
2      C2     -1.3210    3.5144    1.0785 C.ar     1 ZINC000019702309    0.0200
3      C3     -1.2633    2.4160    0.2741 C.ar     1 ZINC000019702309    0.1400
4      N4     -2.4118    1.6533    0.0453 N.pl3    1 ZINC000019702309   -0.6300
5      C5     -2.3848    0.2983    0.2438 C.cat    1 ZINC000019702309    0.7300
6      N6     -1.2733   -0.3603    0.5293 N.pl3    1 ZINC000019702309   -0.6500
7      H7     -0.3935    0.0372    0.6239 H        1 ZINC000019702309    0.4500
8      C8     -1.5826   -1.7906    0.6812 C.3      1 ZINC000019702309    0.0700
9      C9     -3.1026   -1.8578    0.4295 C.3      1 ZINC000019702309    0.0800
10     N10    -3.4690   -0.4566    0.1709 N.pl3    1 ZINC000019702309   -0.6700
11     C11    -0.0297    2.0487   -0.3325 C.ar     1 ZINC000019702309    0.0600
12     N12     0.2763    1.0453   -1.1377 N.2      1 ZINC000019702309   -0.6300
13     S13     1.7860    1.1187   -1.5048 S.3      1 ZINC000019702309    0.9000
14     N14     2.2013    2.3887   -0.7087 N.2      1 ZINC000019702309   -0.5700
15     C15     1.1477    2.8711   -0.0696 C.ar     1 ZINC000019702309    0.0900
16     C16     1.0112    3.9994    0.7787 C.ar     1 ZINC000019702309   -0.0100
17     C17    -0.1945    4.2987    1.3215 C.ar     1 ZINC000019702309   -0.0900
18     H18    -3.2281    2.0834   -0.2540 H        1 ZINC000019702309    0.4400
19     H19    -1.0442   -2.3808   -0.0604 H        1 ZINC000019702309    0.1200
20     H20    -1.3450   -2.1299    1.6894 H        1 ZINC000019702309    0.1200
21     H21    -3.3210   -2.4814   -0.4375 H        1 ZINC000019702309    0.1200
22     H22    -3.6218   -2.2305    1.3124 H        1 ZINC000019702309    0.1200
23     H23    -4.3633   -0.1373   -0.0273 H        1 ZINC000019702309    0.4600
24     H24     1.8674    4.6235    0.9886 H        1 ZINC000019702309    0.1700
25     H25    -0.2824    5.1612    1.9655 H        1 ZINC000019702309    0.1700
@<TRIPOS>BOND
1     1     2     1
2     2     17    ar
3     2     3     ar
4     3     4     1
5     3     11    ar
6     4     5     ar
7     4     18    1
8     5     10    ar
9     5     6     ar
10    6     7     1
11    6     8     1
12    8     9     1
13    8     19    1
14    8     20    1
15    9     10    1
16    9     21    1
17    9     22    1
18    10    23    1
19    11    15    ar
20    11    12    2
21    12    13    1
22    13    14    1
23    14    15    2
24    15    16    ar
25    16    17    ar
26    16    24    1
27    17    25    1
@<TRIPOS>SUBSTRUCTURE
1   ZINC000019702309 1     RESIDUE    1   A     ZIN   1

@<TRIPOS>MOLECULE
ZINC000019702309
24    26    1     0     0
SMALL
USER_CHARGES
@<TRIPOS>ATOM
1      Cl1    -2.1732    2.8944    2.6872 Cl       1 ZINC000019702309   -0.0400
2      C2     -1.0137    3.0399    1.4034 C.ar     1 ZINC000019702309   -0.0100
3      C3     -1.2487    2.4083    0.2188 C.ar     1 ZINC000019702309    0.2300
4      N4     -2.4115    1.6537    0.0453 N.pl3    1 ZINC000019702309   -0.6700
5      C5     -2.3844    0.2922    0.2447 C.2      1 ZINC000019702309    0.6100
6      N6     -1.3001   -0.3549    0.5239 N.2      1 ZINC000019702309   -0.6200
7      C7     -1.5923   -1.7867    0.6784 C.3      1 ZINC000019702309    0.0400
8      C8     -3.1107   -1.8867    0.4313 C.3      1 ZINC000019702309    0.0900
9      N9     -3.5033   -0.4917    0.1702 N.pl3    1 ZINC000019702309   -0.7700
10     C10    -0.3057    2.5207   -0.8409 C.ar     1 ZINC000019702309    0.0900
11     N11    -0.3072    2.0114   -2.0613 N.2      1 ZINC000019702309   -0.5800
12     S12     0.9818    2.4568   -2.8093 S.3      1 ZINC000019702309    0.8100
13     N13     1.6589    3.3154   -1.7031 N.2      1 ZINC000019702309   -0.5900
14     C14     0.8971    3.3187   -0.6210 C.ar     1 ZINC000019702309    0.0800
15     C15     1.0736    3.9466    0.6383 C.ar     1 ZINC000019702309   -0.0400
16     C16     0.1340    3.8047    1.6053 C.ar     1 ZINC000019702309   -0.0900
17     H17    -3.2379    2.0893   -0.2156 H        1 ZINC000019702309    0.4200
18     H18    -1.0454   -2.3703   -0.0622 H        1 ZINC000019702309    0.0800
19     H19    -1.3464   -2.1202    1.6866 H        1 ZINC000019702309    0.0800
20     H20    -3.3190   -2.5168   -0.4334 H        1 ZINC000019702309    0.0700
21     H21    -3.6202   -2.2665    1.3169 H        1 ZINC000019702309    0.0700
22     H22    -4.4011   -0.1821   -0.0270 H        1 ZINC000019702309    0.4100
23     H23     1.9549    4.5422    0.8255 H        1 ZINC000019702309    0.1500
24     H24     0.2827    4.2893    2.5590 H        1 ZINC000019702309    0.1500
@<TRIPOS>BOND
1     1     2     1
2     2     16    ar
3     2     3     ar
4     3     4     1
5     3     10    ar
6     4     5     1
7     4     17    1
8     5     9     1
9     5     6     2
10    6     7     1
11    7     8     1
12    7     18    1
13    7     19    1
14    8     9     1
15    8     20    1
16    8     21    1
17    9     22    1
18    10    14    ar
19    10    11    2
20    11    12    1
21    12    13    1
22    13    14    2
23    14    15    ar
24    15    16    ar
25    15    23    1
26    16    24    1
@<TRIPOS>SUBSTRUCTURE
1   ZINC000019702309 1     RESIDUE    1   A     ZIN   1
