@<TRIPOS>MOLECULE
ZINC000000057253
41    42    1     0     0
SMALL
USER_CHARGES
@<TRIPOS>ATOM
1      C1     -0.4698    0.5560   -0.2677 C.3      1 ZINC000000057253   -0.0500
2      N2      0.1025   -0.7809   -0.0602 N.4      1 ZINC000000057253   -0.3900
3      H3     -0.6405   -1.4626   -0.0217 H        1 ZINC000000057253    0.4300
4      C4      1.0068   -1.1045   -1.1717 C.3      1 ZINC000000057253   -0.0500
5      C5      0.8521   -0.8020    1.2030 C.3      1 ZINC000000057253   -0.0100
6      C6     -0.1119   -0.5884    2.3718 C.3      1 ZINC000000057253   -0.1900
7      C7      0.6689   -0.6103    3.6874 C.3      1 ZINC000000057253    0.2400
8      O8      1.5648    0.5023    3.7281 O.3      1 ZINC000000057253   -0.5400
9      C9     -0.2932   -0.5231    4.8440 C.ar     1 ZINC000000057253   -0.1300
10     C10    -1.6537   -0.4571    4.6079 C.ar     1 ZINC000000057253   -0.1100
11     C11    -2.5362   -0.3771    5.6689 C.ar     1 ZINC000000057253   -0.1200
12     C12    -2.0583   -0.3636    6.9659 C.ar     1 ZINC000000057253   -0.1000
13     C13    -0.6979   -0.4305    7.2020 C.ar     1 ZINC000000057253   -0.1200
14     C14     0.1844   -0.5148    6.1412 C.ar     1 ZINC000000057253   -0.0800
15     C15     1.4552   -1.8922    3.7836 C.ar     1 ZINC000000057253   -0.0900
16     C16     2.8364   -1.8555    3.8089 C.ar     1 ZINC000000057253   -0.0800
17     C17     3.5580   -3.0316    3.8971 C.ar     1 ZINC000000057253   -0.1100
18     C18     2.8985   -4.2447    3.9596 C.ar     1 ZINC000000057253   -0.0900
19     C19     1.5169   -4.2827    3.9343 C.ar     1 ZINC000000057253   -0.1100
20     C20     0.7943   -3.1060    3.8523 C.ar     1 ZINC000000057253   -0.0300
21     Cl21   -0.9408   -3.1529    3.8205 Cl       1 ZINC000000057253   -0.0600
22     H22     0.3328    1.2923   -0.3093 H        1 ZINC000000057253    0.1200
23     H23    -1.0261    0.5716   -1.2050 H        1 ZINC000000057253    0.1300
24     H24    -1.1408    0.7960    0.5570 H        1 ZINC000000057253    0.1200
25     H25     1.8094   -0.3681   -1.2132 H        1 ZINC000000057253    0.1200
26     H26     1.4314   -2.0965   -1.0177 H        1 ZINC000000057253    0.1200
27     H27     0.4505   -1.0889   -2.1090 H        1 ZINC000000057253    0.1300
28     H28     1.3500   -1.7652    1.3140 H        1 ZINC000000057253    0.1300
29     H29     1.5972   -0.0064    1.1966 H        1 ZINC000000057253    0.1400
30     H30    -0.6098    0.3749    2.2607 H        1 ZINC000000057253    0.1000
31     H31    -0.8570   -1.3839    2.3782 H        1 ZINC000000057253    0.1100
32     H32     1.1267    1.3624    3.6706 H        1 ZINC000000057253    0.3900
33     H33    -2.0270   -0.4677    3.5946 H        1 ZINC000000057253    0.1200
34     H34    -3.5990   -0.3249    5.4844 H        1 ZINC000000057253    0.1300
35     H35    -2.7478   -0.3004    7.7948 H        1 ZINC000000057253    0.1300
36     H36    -0.3245   -0.4196    8.2154 H        1 ZINC000000057253    0.1300
37     H37     1.2472   -0.5671    6.3256 H        1 ZINC000000057253    0.1200
38     H38     3.3523   -0.9080    3.7594 H        1 ZINC000000057253    0.1500
39     H39     4.6374   -3.0025    3.9169 H        1 ZINC000000057253    0.1400
40     H40     3.4627   -5.1631    4.0277 H        1 ZINC000000057253    0.1400
41     H41     1.0016   -5.2306    3.9831 H        1 ZINC000000057253    0.1400
@<TRIPOS>BOND
1     1     2     1
2     1     22    1
3     1     23    1
4     1     24    1
5     2     3     1
6     2     4     1
7     2     5     1
8     4     25    1
9     4     26    1
10    4     27    1
11    5     6     1
12    5     28    1
13    5     29    1
14    6     7     1
15    6     30    1
16    6     31    1
17    7     8     1
18    7     9     1
19    7     15    1
20    8     32    1
21    9     14    ar
22    9     10    ar
23    10    11    ar
24    10    33    1
25    11    12    ar
26    11    34    1
27    12    13    ar
28    12    35    1
29    13    14    ar
30    13    36    1
31    14    37    1
32    15    20    ar
33    15    16    ar
34    16    17    ar
35    16    38    1
36    17    18    ar
37    17    39    1
38    18    19    ar
39    18    40    1
40    19    20    ar
41    19    41    1
42    20    21    1
@<TRIPOS>SUBSTRUCTURE
1   ZINC000000057253 1     RESIDUE    1   A     ZIN   1

@<TRIPOS>MOLECULE
ZINC000000057253
40    41    1     0     0
SMALL
USER_CHARGES
@<TRIPOS>ATOM
1      C1      0.5036    0.5608   -0.1983 C.3      1 ZINC000000057253    0.0200
2      N2      0.0251   -0.7892    0.1284 N.3      1 ZINC000000057253   -0.5500
3      C3      0.4876   -1.2038    1.4596 C.3      1 ZINC000000057253    0.0200
4      C4     -1.4387   -0.8666    0.0319 C.3      1 ZINC000000057253    0.0600
5      C5     -1.8647   -0.6719   -1.4247 C.3      1 ZINC000000057253   -0.1500
6      C6     -3.3893   -0.7525   -1.5252 C.3      1 ZINC000000057253    0.2200
7      O7     -3.9721    0.3398   -0.8116 O.3      1 ZINC000000057253   -0.5500
8      C8     -3.8016   -0.6838   -2.9731 C.ar     1 ZINC000000057253   -0.1100
9      C9     -2.8407   -0.5761   -3.9610 C.ar     1 ZINC000000057253   -0.1000
10     C10    -3.2188   -0.5131   -5.2891 C.ar     1 ZINC000000057253   -0.1200
11     C11    -4.5579   -0.5582   -5.6293 C.ar     1 ZINC000000057253   -0.1100
12     C12    -5.5188   -0.6668   -4.6415 C.ar     1 ZINC000000057253   -0.1200
13     C13    -5.1404   -0.7341   -3.3136 C.ar     1 ZINC000000057253   -0.0900
14     C14    -3.8640   -2.0525   -0.9289 C.ar     1 ZINC000000057253   -0.0600
15     C15    -4.6638   -2.0447    0.1981 C.ar     1 ZINC000000057253   -0.0900
16     C16    -5.0994   -3.2373    0.7453 C.ar     1 ZINC000000057253   -0.1200
17     C17    -4.7348   -4.4381    0.1660 C.ar     1 ZINC000000057253   -0.1100
18     C18    -3.9348   -4.4473   -0.9613 C.ar     1 ZINC000000057253   -0.1100
19     C19    -3.5038   -3.2541   -1.5129 C.ar     1 ZINC000000057253   -0.0200
20     Cl20   -2.4991   -3.2648   -2.9286 Cl       1 ZINC000000057253   -0.0600
21     H21     1.5935    0.5724   -0.1876 H        1 ZINC000000057253    0.0700
22     H22     0.1469    0.8429   -1.1889 H        1 ZINC000000057253    0.0700
23     H23     0.1254    1.2687    0.5393 H        1 ZINC000000057253    0.0300
24     H24     0.0524   -0.5500    2.2154 H        1 ZINC000000057253    0.0300
25     H25     0.1788   -2.2322    1.6475 H        1 ZINC000000057253    0.0700
26     H26     1.5746   -1.1371    1.5037 H        1 ZINC000000057253    0.0700
27     H27    -1.7747   -1.8428    0.3814 H        1 ZINC000000057253    0.0700
28     H28    -1.8852   -0.0864    0.6484 H        1 ZINC000000057253    0.0400
29     H29    -1.5287    0.3043   -1.7742 H        1 ZINC000000057253    0.0700
30     H30    -1.4182   -1.4520   -2.0412 H        1 ZINC000000057253    0.1000
31     H31    -3.7100    1.2100   -1.1419 H        1 ZINC000000057253    0.3800
32     H32    -1.7945   -0.5409   -3.6951 H        1 ZINC000000057253    0.1300
33     H33    -2.4681   -0.4282   -6.0609 H        1 ZINC000000057253    0.1200
34     H34    -4.8534   -0.5082   -6.6669 H        1 ZINC000000057253    0.1200
35     H35    -6.5650   -0.7017   -4.9073 H        1 ZINC000000057253    0.1200
36     H36    -5.8911   -0.8190   -2.5419 H        1 ZINC000000057253    0.1200
37     H37    -4.9484   -1.1068    0.6516 H        1 ZINC000000057253    0.1400
38     H38    -5.7244   -3.2307    1.6260 H        1 ZINC000000057253    0.1300
39     H39    -5.0748   -5.3695    0.5943 H        1 ZINC000000057253    0.1300
40     H40    -3.6500   -5.3856   -1.4140 H        1 ZINC000000057253    0.1300
@<TRIPOS>BOND
1     1     2     1
2     1     21    1
3     1     22    1
4     1     23    1
5     2     3     1
6     2     4     1
7     3     24    1
8     3     25    1
9     3     26    1
10    4     5     1
11    4     27    1
12    4     28    1
13    5     6     1
14    5     29    1
15    5     30    1
16    6     7     1
17    6     8     1
18    6     14    1
19    7     31    1
20    8     13    ar
21    8     9     ar
22    9     10    ar
23    9     32    1
24    10    11    ar
25    10    33    1
26    11    12    ar
27    11    34    1
28    12    13    ar
29    12    35    1
30    13    36    1
31    14    19    ar
32    14    15    ar
33    15    16    ar
34    15    37    1
35    16    17    ar
36    16    38    1
37    17    18    ar
38    17    39    1
39    18    19    ar
40    18    40    1
41    19    20    1
@<TRIPOS>SUBSTRUCTURE
1   ZINC000000057253 1     RESIDUE    1   A     ZIN   1
