@<TRIPOS>MOLECULE
ZINC000019363537
  39   38    0    0    0
SMALL
USER_CHARGES
NO_NAME
@<TRIPOS>ATOM
    1 N1       -0.0116     1.0048     0.0076 N.4    1 <0>      -0.6400
    2 H2        0.0021    -0.0041     0.0020 H      1 <0>       0.4400
    3 H3        0.9350     1.3541     0.0004 H      1 <0>       0.4500
    4 H4       -0.4996     1.3391    -0.8099 H      1 <0>       0.4400
    5 C5       -0.6992     1.4786     1.2162 C.3    1 <0>      -0.0100
    6 C6       -2.1346     0.9490     1.2270 C.3    1 <0>       0.0300
    7 N7       -2.8222     1.4227     2.4357 N.3    1 <0>      -0.6800
    8 C8       -4.2063     0.9327     2.4802 C.3    1 <0>       0.0300
    9 C9       -4.8883     1.4455     3.7501 C.3    1 <0>      -0.0100
   10 N10      -6.2724     0.9555     3.7946 N.4    1 <0>      -0.5100
   11 H11      -6.7737     1.2896     2.9852 H      1 <0>       0.4300
   12 H12      -6.2721    -0.0535     3.7971 H      1 <0>       0.4300
   13 C13      -6.9273     1.4479     5.0139 C.3    1 <0>      -0.0100
   14 C14      -8.3689     0.9375     5.0603 C.3    1 <0>       0.0300
   15 N15      -9.0237     1.4299     6.2796 N.3    1 <0>      -0.6800
   16 C16     -10.4128     0.9585     6.3582 C.3    1 <0>       0.0300
   17 C17     -11.0602     1.4905     7.6383 C.3    1 <0>      -0.0100
   18 N18     -12.4493     1.0192     7.7169 N.4    1 <0>      -0.6400
   19 H19     -12.8763     1.3700     8.5611 H      1 <0>       0.4500
   20 H20     -12.9637     1.3534     6.9158 H      1 <0>       0.4400
   21 H21     -12.4621     0.0103     7.7277 H      1 <0>       0.4400
   22 H22      -0.1720     1.1175     2.0992 H      1 <0>       0.1400
   23 H23      -0.7140     2.5685     1.2222 H      1 <0>       0.1500
   24 H24      -2.6618     1.3101     0.3440 H      1 <0>       0.1000
   25 H25      -2.1198    -0.1409     1.2210 H      1 <0>       0.0600
   26 H26      -2.3170     1.1556     3.2672 H      1 <0>       0.3600
   27 H27      -4.7478     1.2936     1.6058 H      1 <0>       0.1000
   28 H28      -4.2059    -0.1573     2.4829 H      1 <0>       0.0600
   29 H29      -4.3468     1.0846     4.6245 H      1 <0>       0.1400
   30 H30      -4.8887     2.5355     3.7474 H      1 <0>       0.1500
   31 H31      -6.3857     1.0869     5.8883 H      1 <0>       0.1400
   32 H32      -6.9277     2.5379     5.0112 H      1 <0>       0.1500
   33 H33      -8.9104     1.2984     4.1859 H      1 <0>       0.1000
   34 H34      -8.3684    -0.1525     5.0630 H      1 <0>       0.0600
   35 H35      -8.5041     1.1627     7.1022 H      1 <0>       0.3600
   36 H36     -10.9685     1.3197     5.4928 H      1 <0>       0.1000
   37 H37     -10.4266    -0.1313     6.3699 H      1 <0>       0.0600
   38 H38     -10.5045     1.1294     8.5037 H      1 <0>       0.1400
   39 H39     -11.0464     2.5804     7.6266 H      1 <0>       0.1500
@<TRIPOS>BOND
   1    1    2 1
   2    1    3 1
   3    1    4 1
   4    1    5 1
   5    5    6 1
   6    5   22 1
   7    5   23 1
   8    6    7 1
   9    6   24 1
  10    6   25 1
  11    7    8 1
  12    7   26 1
  13    8    9 1
  14    8   27 1
  15    8   28 1
  16    9   10 1
  17    9   29 1
  18    9   30 1
  19   10   11 1
  20   10   12 1
  21   10   13 1
  22   13   14 1
  23   13   31 1
  24   13   32 1
  25   14   15 1
  26   14   33 1
  27   14   34 1
  28   15   16 1
  29   15   35 1
  30   16   17 1
  31   16   36 1
  32   16   37 1
  33   17   18 1
  34   17   38 1
  35   17   39 1
  36   18   19 1
  37   18   20 1
  38   18   21 1

@<TRIPOS>MOLECULE
ZINC000019363537
  38   37    0    0    0
SMALL
USER_CHARGES
NO_NAME
@<TRIPOS>ATOM
    1 N1       -0.0116     1.0048     0.0076 N.4    1 <0>      -0.6400
    2 H2        0.0021    -0.0041     0.0020 H      1 <0>       0.4400
    3 H3        0.9350     1.3541     0.0004 H      1 <0>       0.4400
    4 H4       -0.4996     1.3391    -0.8099 H      1 <0>       0.4400
    5 C5       -0.6992     1.4786     1.2162 C.3    1 <0>      -0.0100
    6 C6       -2.1346     0.9490     1.2270 C.3    1 <0>       0.0300
    7 N7       -2.8222     1.4227     2.4357 N.3    1 <0>      -0.6800
    8 C8       -4.2063     0.9327     2.4802 C.3    1 <0>       0.0600
    9 C9       -4.8883     1.4455     3.7501 C.3    1 <0>       0.0600
   10 N10      -6.2724     0.9555     3.7946 N.3    1 <0>      -0.6900
   11 C11      -6.9600     1.4292     5.0032 C.3    1 <0>       0.0600
   12 C12      -8.3954     0.8996     5.0141 C.3    1 <0>       0.0600
   13 N13      -9.0830     1.3734     6.2227 N.3    1 <0>      -0.6800
   14 C14     -10.4671     0.8833     6.2672 C.3    1 <0>       0.0300
   15 C15     -11.1491     1.3962     7.5372 C.3    1 <0>      -0.0100
   16 N16     -12.5333     0.9061     7.5817 N.4    1 <0>      -0.6400
   17 H17     -13.0346     1.2402     6.7723 H      1 <0>       0.4400
   18 H18     -12.5329    -0.1029     7.5842 H      1 <0>       0.4400
   19 H19     -12.9830     1.2443     8.4192 H      1 <0>       0.4400
   20 H20      -0.1720     1.1175     2.0992 H      1 <0>       0.1300
   21 H21      -0.7140     2.5685     1.2222 H      1 <0>       0.1400
   22 H22      -2.6618     1.3101     0.3440 H      1 <0>       0.1000
   23 H23      -2.1198    -0.1409     1.2210 H      1 <0>       0.0600
   24 H24      -2.3170     1.1556     3.2672 H      1 <0>       0.3500
   25 H25      -4.7478     1.2936     1.6058 H      1 <0>       0.0800
   26 H26      -4.2059    -0.1573     2.4829 H      1 <0>       0.0500
   27 H27      -4.3468     1.0846     4.6245 H      1 <0>       0.0800
   28 H28      -4.8887     2.5355     3.7474 H      1 <0>       0.0500
   29 H29      -6.7776     1.2226     2.9630 H      1 <0>       0.3500
   30 H30      -6.4328     1.0681     5.8863 H      1 <0>       0.0800
   31 H31      -6.9748     2.5191     5.0092 H      1 <0>       0.0500
   32 H32      -8.9226     1.2607     4.1310 H      1 <0>       0.0800
   33 H33      -8.3806    -0.1903     5.0081 H      1 <0>       0.0500
   34 H34      -8.5779     1.1062     7.0543 H      1 <0>       0.3500
   35 H35     -11.0087     1.2443     5.3929 H      1 <0>       0.1000
   36 H36     -10.4667    -0.2067     6.2699 H      1 <0>       0.0600
   37 H37     -10.6076     1.0352     8.4115 H      1 <0>       0.1300
   38 H38     -11.1495     2.4862     7.5345 H      1 <0>       0.1400
@<TRIPOS>BOND
   1    1    2 1
   2    1    3 1
   3    1    4 1
   4    1    5 1
   5    5    6 1
   6    5   20 1
   7    5   21 1
   8    6    7 1
   9    6   22 1
  10    6   23 1
  11    7    8 1
  12    7   24 1
  13    8    9 1
  14    8   25 1
  15    8   26 1
  16    9   10 1
  17    9   27 1
  18    9   28 1
  19   10   11 1
  20   10   29 1
  21   11   12 1
  22   11   30 1
  23   11   31 1
  24   12   13 1
  25   12   32 1
  26   12   33 1
  27   13   14 1
  28   13   34 1
  29   14   15 1
  30   14   35 1
  31   14   36 1
  32   15   16 1
  33   15   37 1
  34   15   38 1
  35   16   17 1
  36   16   18 1
  37   16   19 1
