@<TRIPOS>MOLECULE
ZINC000019156872
43    45    1     0     0
SMALL
USER_CHARGES
@<TRIPOS>ATOM
1      C1     -0.0178    1.4648    0.0101 C.3      1 ZINC000019156872    0.0200
2      N2      0.0021   -0.0041    0.0020 N.3      1 ZINC000019156872   -0.5400
3      C3     -1.3607   -0.5489   -0.0764 C.3      1 ZINC000019156872    0.0300
4      C4     -1.2932   -2.0762   -0.1426 C.3      1 ZINC000019156872    0.0000
5      N5     -0.6107   -2.5886    1.0529 N.4      1 ZINC000019156872   -0.3800
6      H6     -1.1152   -2.2999    1.8777 H        1 ZINC000019156872    0.4100
7      C7     -0.5618   -4.0557    0.9975 C.3      1 ZINC000019156872    0.1300
8      C8      0.1384   -4.5816    2.2240 C.ar     1 ZINC000019156872   -0.1300
9      C9     -0.1005   -4.0046    3.4572 C.ar     1 ZINC000019156872   -0.1200
10     C10     0.5417   -4.4870    4.5821 C.ar     1 ZINC000019156872   -0.1000
11     C11     1.4227   -5.5468    4.4740 C.ar     1 ZINC000019156872   -0.0900
12     C12     1.6610   -6.1244    3.2409 C.ar     1 ZINC000019156872   -0.1000
13     C13     1.0154   -5.6448    2.1166 C.ar     1 ZINC000019156872   -0.0900
14     C14    -1.9648   -4.6035    0.9464 C.ar     1 ZINC000019156872   -0.1300
15     C15    -2.9602   -4.0271    1.7131 C.ar     1 ZINC000019156872   -0.1200
16     C16    -4.2471   -4.5296    1.6662 C.ar     1 ZINC000019156872   -0.1000
17     C17    -4.5387   -5.6081    0.8522 C.ar     1 ZINC000019156872   -0.0900
18     C18    -3.5435   -6.1839    0.0848 C.ar     1 ZINC000019156872   -0.1000
19     C19    -2.2575   -5.6788    0.1285 C.ar     1 ZINC000019156872   -0.0900
20     C20     0.7570   -2.0553    1.1043 C.3      1 ZINC000019156872    0.0000
21     C21     0.7065   -0.5278    1.1808 C.3      1 ZINC000019156872    0.0300
22     H22     1.0047    1.8421    0.0024 H        1 ZINC000019156872    0.0800
23     H23    -0.5450    1.8259   -0.8730 H        1 ZINC000019156872    0.0800
24     H24    -0.5280    1.8163    0.9069 H        1 ZINC000019156872    0.0400
25     H25    -1.9242   -0.2477    0.8067 H        1 ZINC000019156872    0.0600
26     H26    -1.8539   -0.1676   -0.9705 H        1 ZINC000019156872    0.1300
27     H27    -2.3035   -2.4830   -0.1865 H        1 ZINC000019156872    0.1400
28     H28    -0.7413   -2.3773   -1.0330 H        1 ZINC000019156872    0.1400
29     H29    -0.0172   -4.3677    0.1063 H        1 ZINC000019156872    0.1500
30     H30    -0.7888   -3.1766    3.5416 H        1 ZINC000019156872    0.1100
31     H31     0.3556   -4.0357    5.5455 H        1 ZINC000019156872    0.1400
32     H32     1.9251   -5.9232    5.3528 H        1 ZINC000019156872    0.1400
33     H33     2.3495   -6.9522    3.1564 H        1 ZINC000019156872    0.1400
34     H34     1.2016   -6.0961    1.1533 H        1 ZINC000019156872    0.1300
35     H35    -2.7323   -3.1844    2.3490 H        1 ZINC000019156872    0.1100
36     H36    -5.0246   -4.0797    2.2658 H        1 ZINC000019156872    0.1400
37     H37    -5.5440   -6.0011    0.8161 H        1 ZINC000019156872    0.1400
38     H38    -3.7713   -7.0268   -0.5508 H        1 ZINC000019156872    0.1400
39     H39    -1.4800   -6.1286   -0.4711 H        1 ZINC000019156872    0.1300
40     H40     1.2666   -2.4465    1.9848 H        1 ZINC000019156872    0.1400
41     H41     1.2983   -2.3564    0.2075 H        1 ZINC000019156872    0.1400
42     H42     1.7215   -0.1310    1.2040 H        1 ZINC000019156872    0.1300
43     H43     0.1771   -0.2262    2.0846 H        1 ZINC000019156872    0.0600
@<TRIPOS>BOND
1     1     2     1
2     1     22    1
3     1     23    1
4     1     24    1
5     2     21    1
6     2     3     1
7     3     4     1
8     3     25    1
9     3     26    1
10    4     5     1
11    4     27    1
12    4     28    1
13    5     6     1
14    5     7     1
15    5     20    1
16    7     8     1
17    7     14    1
18    7     29    1
19    8     13    ar
20    8     9     ar
21    9     10    ar
22    9     30    1
23    10    11    ar
24    10    31    1
25    11    12    ar
26    11    32    1
27    12    13    ar
28    12    33    1
29    13    34    1
30    14    19    ar
31    14    15    ar
32    15    16    ar
33    15    35    1
34    16    17    ar
35    16    36    1
36    17    18    ar
37    17    37    1
38    18    19    ar
39    18    38    1
40    19    39    1
41    20    21    1
42    20    40    1
43    20    41    1
44    21    42    1
45    21    43    1
@<TRIPOS>SUBSTRUCTURE
1   ZINC000019156872 1     RESIDUE    1   A     ZIN   1

@<TRIPOS>MOLECULE
ZINC000019156872
42    44    1     0     0
SMALL
USER_CHARGES
@<TRIPOS>ATOM
1      C1     -0.0178    1.4648    0.0101 C.3      1 ZINC000019156872    0.0200
2      N2      0.0021   -0.0041    0.0020 N.3      1 ZINC000019156872   -0.5500
3      C3     -1.3604   -0.5488   -0.0788 C.3      1 ZINC000019156872    0.0600
4      C4     -1.2923   -2.0754   -0.1650 C.3      1 ZINC000019156872    0.0600
5      N5     -0.5880   -2.5990    1.0137 N.3      1 ZINC000019156872   -0.5300
6      C6     -0.5680   -4.0678    1.0056 C.3      1 ZINC000019156872    0.1700
7      C7      0.1608   -4.5671    2.2265 C.ar     1 ZINC000019156872   -0.0800
8      C8     -0.0282   -3.9455    3.4467 C.ar     1 ZINC000019156872   -0.0900
9      C9      0.6403   -4.4034    4.5666 C.ar     1 ZINC000019156872   -0.1200
10     C10     1.4976   -5.4832    4.4665 C.ar     1 ZINC000019156872   -0.1200
11     C11     1.6860   -6.1053    3.2465 C.ar     1 ZINC000019156872   -0.1200
12     C12     1.0142   -5.6501    2.1274 C.ar     1 ZINC000019156872   -0.1100
13     C13    -1.9818   -4.5895    1.0163 C.ar     1 ZINC000019156872   -0.0800
14     C14    -2.9416   -3.9690    1.7940 C.ar     1 ZINC000019156872   -0.0900
15     C15    -4.2385   -4.4475    1.8038 C.ar     1 ZINC000019156872   -0.1200
16     C16    -4.5757   -5.5461    1.0356 C.ar     1 ZINC000019156872   -0.1200
17     C17    -3.6161   -6.1660    0.2572 C.ar     1 ZINC000019156872   -0.1200
18     C18    -2.3202   -5.6849    0.2441 C.ar     1 ZINC000019156872   -0.1100
19     C19     0.7745   -2.0543    1.0946 C.3      1 ZINC000019156872    0.0600
20     C20     0.7064   -0.5277    1.1807 C.3      1 ZINC000019156872    0.0600
21     H21     1.0047    1.8421    0.0024 H        1 ZINC000019156872    0.0700
22     H22    -0.5450    1.8259   -0.8730 H        1 ZINC000019156872    0.0700
23     H23    -0.5280    1.8163    0.9069 H        1 ZINC000019156872    0.0300
24     H24    -1.9211   -0.2594    0.8100 H        1 ZINC000019156872    0.0400
25     H25    -1.8569   -0.1563   -0.9662 H        1 ZINC000019156872    0.0800
26     H26    -2.3026   -2.4833   -0.1958 H        1 ZINC000019156872    0.0800
27     H27    -0.7551   -2.3650   -1.0681 H        1 ZINC000019156872    0.0400
28     H28    -0.0578   -4.4194    0.1089 H        1 ZINC000019156872    0.0600
29     H29    -0.6980   -3.1019    3.5250 H        1 ZINC000019156872    0.1300
30     H30     0.4932   -3.9174    5.5198 H        1 ZINC000019156872    0.1200
31     H31     2.0205   -5.8405    5.3413 H        1 ZINC000019156872    0.1200
32     H32     2.3561   -6.9487    3.1681 H        1 ZINC000019156872    0.1200
33     H33     1.1613   -6.1361    1.1743 H        1 ZINC000019156872    0.1200
34     H34    -2.6781   -3.1106    2.3942 H        1 ZINC000019156872    0.1300
35     H35    -4.9881   -3.9632    2.4120 H        1 ZINC000019156872    0.1200
36     H36    -5.5887   -5.9204    1.0438 H        1 ZINC000019156872    0.1200
37     H37    -3.8795   -7.0246   -0.3427 H        1 ZINC000019156872    0.1200
38     H38    -1.5706   -6.1692   -0.3640 H        1 ZINC000019156872    0.1200
39     H39     1.2710   -2.4468    1.9820 H        1 ZINC000019156872    0.0900
40     H40     1.3352   -2.3437    0.2058 H        1 ZINC000019156872    0.0400
41     H41     1.7168   -0.1198    1.2116 H        1 ZINC000019156872    0.0800
42     H42     0.1692   -0.2380    2.0838 H        1 ZINC000019156872    0.0400
@<TRIPOS>BOND
1     1     2     1
2     1     21    1
3     1     22    1
4     1     23    1
5     2     20    1
6     2     3     1
7     3     4     1
8     3     24    1
9     3     25    1
10    4     5     1
11    4     26    1
12    4     27    1
13    5     6     1
14    5     19    1
15    6     7     1
16    6     13    1
17    6     28    1
18    7     12    ar
19    7     8     ar
20    8     9     ar
21    8     29    1
22    9     10    ar
23    9     30    1
24    10    11    ar
25    10    31    1
26    11    12    ar
27    11    32    1
28    12    33    1
29    13    18    ar
30    13    14    ar
31    14    15    ar
32    14    34    1
33    15    16    ar
34    15    35    1
35    16    17    ar
36    16    36    1
37    17    18    ar
38    17    37    1
39    18    38    1
40    19    20    1
41    19    39    1
42    19    40    1
43    20    41    1
44    20    42    1
@<TRIPOS>SUBSTRUCTURE
1   ZINC000019156872 1     RESIDUE    1   A     ZIN   1

@<TRIPOS>MOLECULE
ZINC000019156872
43    45    1     0     0
SMALL
USER_CHARGES
@<TRIPOS>ATOM
1      C1     -0.0178    1.4648    0.0101 C.3      1 ZINC000019156872   -0.0500
2      N2      0.0021   -0.0041    0.0020 N.4      1 ZINC000019156872   -0.3900
3      H3     -0.9446   -0.3531    0.0092 H        1 ZINC000019156872    0.4200
4      C4      0.7119   -0.4904    1.1925 C.3      1 ZINC000019156872    0.0000
5      C5      0.7166   -2.0206    1.1942 C.3      1 ZINC000019156872    0.0200
6      N6      1.3783   -2.5070   -0.0247 N.3      1 ZINC000019156872   -0.5300
7      C7      1.4533   -3.9741   -0.0333 C.3      1 ZINC000019156872    0.1800
8      C8      2.1363   -4.4347   -1.2953 C.ar     1 ZINC000019156872   -0.0900
9      C9      3.2313   -3.7442   -1.7801 C.ar     1 ZINC000019156872   -0.1000
10     C10     3.8578   -4.1668   -2.9376 C.ar     1 ZINC000019156872   -0.1200
11     C11     3.3895   -5.2801   -3.6101 C.ar     1 ZINC000019156872   -0.1100
12     C12     2.2951   -5.9711   -3.1247 C.ar     1 ZINC000019156872   -0.1200
13     C13     1.6712   -5.5511   -1.9649 C.ar     1 ZINC000019156872   -0.1100
14     C14     2.2394   -4.4439    1.1635 C.ar     1 ZINC000019156872   -0.0900
15     C15     3.3650   -3.7501    1.5668 C.ar     1 ZINC000019156872   -0.1000
16     C16     4.0861   -4.1810    2.6647 C.ar     1 ZINC000019156872   -0.1200
17     C17     3.6813   -5.3055    3.3594 C.ar     1 ZINC000019156872   -0.1100
18     C18     2.5552   -5.9987    2.9567 C.ar     1 ZINC000019156872   -0.1200
19     C19     1.8317   -5.5653    1.8614 C.ar     1 ZINC000019156872   -0.1100
20     C20     0.6932   -2.0076   -1.2253 C.3      1 ZINC000019156872    0.0200
21     C21     0.6890   -0.4775   -1.2069 C.3      1 ZINC000019156872    0.0000
22     H22     1.0047    1.8421    0.0024 H        1 ZINC000019156872    0.1200
23     H23    -0.5450    1.8259   -0.8730 H        1 ZINC000019156872    0.1200
24     H24    -0.5280    1.8163    0.9069 H        1 ZINC000019156872    0.1200
25     H25     1.7384   -0.1239    1.1783 H        1 ZINC000019156872    0.1400
26     H26     0.2090   -0.1276    2.0888 H        1 ZINC000019156872    0.1400
27     H27     1.2562   -2.3817    2.0697 H        1 ZINC000019156872    0.1300
28     H28    -0.3095   -2.3874    1.2221 H        1 ZINC000019156872    0.0600
29     H29     0.4465   -4.3896    0.0073 H        1 ZINC000019156872    0.0700
30     H30     3.5972   -2.8744   -1.2547 H        1 ZINC000019156872    0.1300
31     H31     4.7129   -3.6269   -3.3168 H        1 ZINC000019156872    0.1200
32     H32     3.8786   -5.6098   -4.5148 H        1 ZINC000019156872    0.1300
33     H33     1.9290   -6.8407   -3.6503 H        1 ZINC000019156872    0.1300
34     H34     0.8162   -6.0909   -1.5857 H        1 ZINC000019156872    0.1200
35     H35     3.6812   -2.8716    1.0240 H        1 ZINC000019156872    0.1300
36     H36     4.9659   -3.6394    2.9793 H        1 ZINC000019156872    0.1200
37     H37     4.2451   -5.6425    4.2167 H        1 ZINC000019156872    0.1300
38     H38     2.2392   -6.8774    3.4993 H        1 ZINC000019156872    0.1300
39     H39     0.9519   -6.1069    1.5467 H        1 ZINC000019156872    0.1200
40     H40     1.2157   -2.3592   -2.1150 H        1 ZINC000019156872    0.1300
41     H41    -0.3333   -2.3742   -1.2373 H        1 ZINC000019156872    0.0600
42     H42     0.1689   -0.1049   -2.0894 H        1 ZINC000019156872    0.1400
43     H43     1.7157   -0.1113   -1.2087 H        1 ZINC000019156872    0.1400
@<TRIPOS>BOND
1     1     2     1
2     1     22    1
3     1     23    1
4     1     24    1
5     2     3     1
6     2     21    1
7     2     4     1
8     4     5     1
9     4     25    1
10    4     26    1
11    5     6     1
12    5     27    1
13    5     28    1
14    6     7     1
15    6     20    1
16    7     8     1
17    7     14    1
18    7     29    1
19    8     13    ar
20    8     9     ar
21    9     10    ar
22    9     30    1
23    10    11    ar
24    10    31    1
25    11    12    ar
26    11    32    1
27    12    13    ar
28    12    33    1
29    13    34    1
30    14    19    ar
31    14    15    ar
32    15    16    ar
33    15    35    1
34    16    17    ar
35    16    36    1
36    17    18    ar
37    17    37    1
38    18    19    ar
39    18    38    1
40    19    39    1
41    20    21    1
42    20    40    1
43    20    41    1
44    21    42    1
45    21    43    1
@<TRIPOS>SUBSTRUCTURE
1   ZINC000019156872 1     RESIDUE    1   A     ZIN   1
