@<TRIPOS>MOLECULE
ZINC000002005550
35    35    1     0     0
SMALL
USER_CHARGES
@<TRIPOS>ATOM
1      C1     -0.1423    1.1119   -0.2965 C.2      1 ZINC000002005550   -0.1600
2      C2     -0.1153   -0.1821   -0.0947 C.2      1 ZINC000002005550   -0.1900
3      C3      1.1962   -0.9235   -0.1326 C.3      1 ZINC000002005550   -0.0800
4      C4      1.3813   -1.6995    1.1730 C.3      1 ZINC000002005550   -0.1100
5      C5      2.6799   -2.5013    1.0664 C.3      1 ZINC000002005550   -0.0700
6      H6      3.5265   -1.8167    1.0148 H        1 ZINC000002005550    0.1000
7      C7      2.8260   -3.4014    2.2950 C.3      1 ZINC000002005550   -0.1600
8      C8      2.6443   -3.3642   -0.1966 C.3      1 ZINC000002005550   -0.1300
9      C9      3.9904   -4.0705   -0.3699 C.3      1 ZINC000002005550   -0.1200
10     C10     3.9547   -4.9334   -1.6329 C.3      1 ZINC000002005550   -0.1500
11     C11     1.5419   -0.6963    2.2996 C.2      1 ZINC000002005550    0.5500
12     O12     2.4303    0.1284    2.2851 O.2      1 ZINC000002005550   -0.4600
13     N13     0.6586   -0.7559    3.3187 N.am     1 ZINC000002005550   -0.6700
14     C14    -0.3276   -1.6595    3.3494 C.2      1 ZINC000002005550    0.7200
15     O15    -1.0780   -1.6417    4.3047 O.2      1 ZINC000002005550   -0.5200
16     N16    -0.5479   -2.5811    2.4049 N.am     1 ZINC000002005550   -0.6700
17     C17     0.2310   -2.6794    1.3068 C.2      1 ZINC000002005550    0.5500
18     O18     0.0195   -3.5200    0.4592 O.2      1 ZINC000002005550   -0.4600
19     H19     0.7754    1.6475   -0.4901 H        1 ZINC000002005550    0.1000
20     H20    -1.0827    1.6425   -0.2738 H        1 ZINC000002005550    0.1000
21     H21    -1.0330   -0.7177    0.0989 H        1 ZINC000002005550    0.1100
22     H22     1.1963   -1.6190   -0.9718 H        1 ZINC000002005550    0.1100
23     H23     2.0128   -0.2113   -0.2508 H        1 ZINC000002005550    0.1000
24     H24     2.7453   -2.7979    3.1991 H        1 ZINC000002005550    0.0500
25     H25     2.0381   -4.1545    2.2893 H        1 ZINC000002005550    0.0600
26     H26     3.7986   -3.8928    2.2718 H        1 ZINC000002005550    0.0800
27     H27     1.8527   -4.1080   -0.1062 H        1 ZINC000002005550    0.0900
28     H28     2.4514   -2.7319   -1.0633 H        1 ZINC000002005550    0.0700
29     H29     4.7820   -3.3266   -0.4603 H        1 ZINC000002005550    0.0600
30     H30     4.1832   -4.7027    0.4968 H        1 ZINC000002005550    0.0600
31     H31     3.1631   -5.6772   -1.5425 H        1 ZINC000002005550    0.0500
32     H32     3.7619   -4.3011   -2.4996 H        1 ZINC000002005550    0.0500
33     H33     4.9137   -5.4365   -1.7564 H        1 ZINC000002005550    0.0500
34     H34     0.7415   -0.1248    4.0507 H        1 ZINC000002005550    0.4400
35     H35    -1.2894   -3.1971    2.5125 H        1 ZINC000002005550    0.4400
@<TRIPOS>BOND
1     1     2     2
2     1     19    1
3     1     20    1
4     2     3     1
5     2     21    1
6     3     4     1
7     3     22    1
8     3     23    1
9     4     17    1
10    4     5     1
11    4     11    1
12    5     6     1
13    5     7     1
14    5     8     1
15    7     24    1
16    7     25    1
17    7     26    1
18    8     9     1
19    8     27    1
20    8     28    1
21    9     10    1
22    9     29    1
23    9     30    1
24    10    31    1
25    10    32    1
26    10    33    1
27    11    12    2
28    11    13    am
29    13    14    am
30    13    34    1
31    14    15    2
32    14    16    am
33    16    17    am
34    16    35    1
35    17    18    2
@<TRIPOS>SUBSTRUCTURE
1   ZINC000002005550 1     RESIDUE    1   A     ZIN   1

@<TRIPOS>MOLECULE
ZINC000002005550
34    34    1     0     0
SMALL
USER_CHARGES
@<TRIPOS>ATOM
1      C1      0.1161    1.1121    0.3129 C.2      1 ZINC000002005550   -0.1800
2      C2      0.1242   -0.1799    0.0968 C.2      1 ZINC000002005550   -0.1600
3      C3     -1.1667   -0.9569    0.1263 C.3      1 ZINC000002005550   -0.0700
4      C4     -1.3308   -1.7232   -1.1878 C.3      1 ZINC000002005550   -0.1500
5      C5     -2.6072   -2.5612   -1.0901 C.3      1 ZINC000002005550   -0.0600
6      H6     -3.4721   -1.9003   -1.0312 H        1 ZINC000002005550    0.0900
7      C7     -2.7290   -3.4513   -2.3286 C.3      1 ZINC000002005550   -0.1500
8      C8     -2.5480   -3.4366    0.1633 C.3      1 ZINC000002005550   -0.1300
9      C9     -3.8744   -4.1810    0.3286 C.3      1 ZINC000002005550   -0.1200
10     C10    -3.8152   -5.0564    1.5820 C.3      1 ZINC000002005550   -0.1500
11     C11    -1.5188   -0.7125   -2.3033 C.2      1 ZINC000002005550    0.5300
12     O12    -2.4292    0.0876   -2.2799 O.2      1 ZINC000002005550   -0.5500
13     N13    -0.6343   -0.7369   -3.3228 N.pl3    1 ZINC000002005550   -0.7100
14     C14     0.3760   -1.6130   -3.3634 C.2      1 ZINC000002005550    0.6700
15     O15     1.1255   -1.5644   -4.3182 O.2      1 ZINC000002005550   -0.6000
16     N16     0.6214   -2.5386   -2.4290 N.am     1 ZINC000002005550   -0.7000
17     C17    -0.1544   -2.6702   -1.3321 C.2      1 ZINC000002005550    0.5500
18     O18     0.0800   -3.5139   -0.4938 O.2      1 ZINC000002005550   -0.5300
19     H19     1.0413    1.6690    0.2917 H        1 ZINC000002005550    0.0900
20     H20    -0.8162    1.6212    0.5078 H        1 ZINC000002005550    0.1000
21     H21     1.0561   -0.6882   -0.1025 H        1 ZINC000002005550    0.1000
22     H22    -1.1477   -1.6614    0.9578 H        1 ZINC000002005550    0.0800
23     H23    -2.0023   -0.2685    0.2523 H        1 ZINC000002005550    0.0800
24     H24    -3.6879   -3.9692   -2.3110 H        1 ZINC000002005550    0.0600
25     H25    -2.6648   -2.8359   -3.2260 H        1 ZINC000002005550    0.0600
26     H26    -1.9209   -4.1828   -2.3311 H        1 ZINC000002005550    0.0500
27     H27    -1.7365   -4.1577    0.0648 H        1 ZINC000002005550    0.0900
28     H28    -2.3723   -2.8089    1.0369 H        1 ZINC000002005550    0.0600
29     H29    -4.6859   -3.4599    0.4271 H        1 ZINC000002005550    0.0600
30     H30    -4.0502   -4.8087   -0.5450 H        1 ZINC000002005550    0.0600
31     H31    -4.7602   -5.5867    1.6998 H        1 ZINC000002005550    0.0500
32     H32    -3.0037   -5.7775    1.4836 H        1 ZINC000002005550    0.0500
33     H33    -3.6394   -4.4287    2.4556 H        1 ZINC000002005550    0.0500
34     H34     1.3793   -3.1331   -2.5433 H        1 ZINC000002005550    0.3900
@<TRIPOS>BOND
1     1     2     2
2     1     19    1
3     1     20    1
4     2     3     1
5     2     21    1
6     3     4     1
7     3     22    1
8     3     23    1
9     4     17    1
10    4     5     1
11    4     11    1
12    5     6     1
13    5     7     1
14    5     8     1
15    7     24    1
16    7     25    1
17    7     26    1
18    8     9     1
19    8     27    1
20    8     28    1
21    9     10    1
22    9     29    1
23    9     30    1
24    10    31    1
25    10    32    1
26    10    33    1
27    11    12    2
28    11    13    1
29    13    14    1
30    14    15    2
31    14    16    am
32    16    17    am
33    16    34    1
34    17    18    2
@<TRIPOS>SUBSTRUCTURE
1   ZINC000002005550 1     RESIDUE    1   A     ZIN   1
