@<TRIPOS>MOLECULE
ZINC000001530762
48    48    1     0     0
SMALL
USER_CHARGES
@<TRIPOS>ATOM
1      C1      0.2177    1.0882    0.4976 C.3      1 ZINC000001530762   -0.1500
2      C2      0.2859   -0.4388    0.4285 C.3      1 ZINC000001530762   -0.1300
3      C3      0.9548   -0.8606   -0.8812 C.3      1 ZINC000001530762    0.0600
4      O4      1.0185   -2.2868   -0.9458 O.3      1 ZINC000001530762   -0.3100
5      C5      1.5880   -2.8290   -2.0530 C.ar     1 ZINC000001530762    0.1100
6      C6      2.0803   -2.0031   -3.0534 C.ar     1 ZINC000001530762   -0.1800
7      C7      2.6593   -2.5480   -4.1794 C.ar     1 ZINC000001530762   -0.0800
8      C8      2.7525   -3.9354   -4.3160 C.ar     1 ZINC000001530762   -0.1300
9      C9      3.3723   -4.5193   -5.5202 C.2      1 ZINC000001530762    0.5200
10     O10     3.5373   -5.7206   -5.5968 O.2      1 ZINC000001530762   -0.4900
11     O11     3.7556   -3.7205   -6.5354 O.3      1 ZINC000001530762   -0.3700
12     C12     4.2530   -4.3711   -7.7344 C.3      1 ZINC000001530762    0.0300
13     C13     4.7498   -3.3120   -8.7206 C.3      1 ZINC000001530762   -0.0100
14     N14     5.8921   -2.5966   -8.1365 N.4      1 ZINC000001530762   -0.3900
15     H15     5.6333   -2.2307   -7.2325 H        1 ZINC000001530762    0.4300
16     C16     7.0234   -3.5213   -7.9848 C.3      1 ZINC000001530762   -0.0200
17     C17     8.1700   -2.8104   -7.2633 C.3      1 ZINC000001530762   -0.1900
18     C18     6.2801   -1.4891   -9.0202 C.3      1 ZINC000001530762   -0.0200
19     C19     5.1592   -0.4483   -9.0557 C.3      1 ZINC000001530762   -0.1900
20     C20     2.2574   -4.7690   -3.3086 C.ar     1 ZINC000001530762   -0.1000
21     C21     1.6822   -4.2162   -2.1796 C.ar     1 ZINC000001530762    0.1900
22     N22     1.1856   -5.0470   -1.1683 N.pl3    1 ZINC000001530762   -0.8700
23     H23     1.2264    1.4992    0.4559 H        1 ZINC000001530762    0.0600
24     H24    -0.3631    1.4644   -0.3446 H        1 ZINC000001530762    0.0600
25     H25    -0.2588    1.3887    1.4307 H        1 ZINC000001530762    0.0700
26     H26     0.8667   -0.8150    1.2707 H        1 ZINC000001530762    0.0800
27     H27    -0.7227   -0.8498    0.4703 H        1 ZINC000001530762    0.0800
28     H28     0.3741   -0.4844   -1.7234 H        1 ZINC000001530762    0.0700
29     H29     1.9635   -0.4496   -0.9229 H        1 ZINC000001530762    0.0700
30     H30     2.0092   -0.9304   -2.9497 H        1 ZINC000001530762    0.1400
31     H31     3.0408   -1.9023   -4.9565 H        1 ZINC000001530762    0.1300
32     H32     5.0748   -5.0372   -7.4721 H        1 ZINC000001530762    0.1000
33     H33     3.4505   -4.9478   -8.1943 H        1 ZINC000001530762    0.1200
34     H34     5.0590   -3.7952   -9.6474 H        1 ZINC000001530762    0.1500
35     H35     3.9468   -2.6052   -8.9297 H        1 ZINC000001530762    0.1500
36     H36     6.7091   -4.3874   -7.4024 H        1 ZINC000001530762    0.1300
37     H37     7.3602   -3.8479   -8.9687 H        1 ZINC000001530762    0.1300
38     H38     9.0094   -3.4966   -7.1507 H        1 ZINC000001530762    0.1100
39     H39     8.4843   -1.9443   -7.8457 H        1 ZINC000001530762    0.0800
40     H40     7.8333   -2.4838   -6.2794 H        1 ZINC000001530762    0.0800
41     H41     7.1931   -1.0272   -8.6445 H        1 ZINC000001530762    0.1300
42     H42     6.4535   -1.8708  -10.0264 H        1 ZINC000001530762    0.1300
43     H43     4.2287   -0.9267   -9.3613 H        1 ZINC000001530762    0.0800
44     H44     5.0355   -0.0136   -8.0638 H        1 ZINC000001530762    0.0800
45     H45     5.4149    0.3369   -9.7672 H        1 ZINC000001530762    0.1100
46     H46     2.3273   -5.8419   -3.4107 H        1 ZINC000001530762    0.1400
47     H47     1.2451   -6.0109   -1.2596 H        1 ZINC000001530762    0.4000
48     H48     0.7820   -4.6588   -0.3762 H        1 ZINC000001530762    0.4100
@<TRIPOS>BOND
1     1     2     1
2     1     23    1
3     1     24    1
4     1     25    1
5     2     3     1
6     2     26    1
7     2     27    1
8     3     4     1
9     3     28    1
10    3     29    1
11    4     5     1
12    5     21    ar
13    5     6     ar
14    6     7     ar
15    6     30    1
16    7     8     ar
17    7     31    1
18    8     9     1
19    8     20    ar
20    9     10    2
21    9     11    1
22    11    12    1
23    12    13    1
24    12    32    1
25    12    33    1
26    13    14    1
27    13    34    1
28    13    35    1
29    14    15    1
30    14    16    1
31    14    18    1
32    16    17    1
33    16    36    1
34    16    37    1
35    17    38    1
36    17    39    1
37    17    40    1
38    18    19    1
39    18    41    1
40    18    42    1
41    19    43    1
42    19    44    1
43    19    45    1
44    20    21    ar
45    20    46    1
46    21    22    1
47    22    47    1
48    22    48    1
@<TRIPOS>SUBSTRUCTURE
1   ZINC000001530762 1     RESIDUE    1   A     ZIN   1

@<TRIPOS>MOLECULE
ZINC000001530762
47    47    1     0     0
SMALL
USER_CHARGES
@<TRIPOS>ATOM
1      C1     -0.2604   -0.2830   -0.6824 C.3      1 ZINC000001530762   -0.1500
2      C2     -0.0160   -1.7799   -0.4814 C.3      1 ZINC000001530762   -0.1200
3      C3      0.7464   -2.0011    0.8266 C.3      1 ZINC000001530762    0.0600
4      O4      0.9747   -3.3992    1.0143 O.3      1 ZINC000001530762   -0.3200
5      C5      1.6443   -3.7694    2.1363 C.ar     1 ZINC000001530762    0.0900
6      C6      2.0671   -2.8052    3.0400 C.ar     1 ZINC000001530762   -0.1800
7      C7      2.7472   -3.1753    4.1805 C.ar     1 ZINC000001530762   -0.0800
8      C8      3.0124   -4.5242    4.4298 C.ar     1 ZINC000001530762   -0.1200
9      C9      3.7395   -4.9211    5.6499 C.2      1 ZINC000001530762    0.5100
10     O10     3.9695   -6.0945    5.8655 O.2      1 ZINC000001530762   -0.5100
11     O11     4.1488   -3.9823    6.5257 O.3      1 ZINC000001530762   -0.3500
12     C12     4.8587   -4.4455    7.7046 C.3      1 ZINC000001530762    0.0700
13     C13     5.2405   -3.2459    8.5741 C.3      1 ZINC000001530762    0.0500
14     N14     4.0221   -2.6071    9.0895 N.3      1 ZINC000001530762   -0.5400
15     C15     4.3301   -1.7211   10.2200 C.3      1 ZINC000001530762    0.0400
16     C16     3.0413   -1.3922   10.9761 C.3      1 ZINC000001530762   -0.1500
17     C17     3.3195   -1.8779    8.0253 C.3      1 ZINC000001530762    0.0400
18     C18     4.2780   -0.8801    7.3722 C.3      1 ZINC000001530762   -0.1900
19     C19     2.5866   -5.4971    3.5204 C.ar     1 ZINC000001530762   -0.1100
20     C20     1.9007   -5.1198    2.3808 C.ar     1 ZINC000001530762    0.1800
21     N21     1.4721   -6.0906    1.4678 N.pl3    1 ZINC000001530762   -0.8700
22     H22     0.6957    0.2386   -0.7264 H        1 ZINC000001530762    0.0600
23     H23    -0.8035   -0.1255   -1.6142 H        1 ZINC000001530762    0.0700
24     H24    -0.8475    0.1042    0.1503 H        1 ZINC000001530762    0.0600
25     H25    -0.9720   -2.3015   -0.4374 H        1 ZINC000001530762    0.0700
26     H26     0.5712   -2.1672   -1.3141 H        1 ZINC000001530762    0.0700
27     H27     1.7025   -1.4795    0.7826 H        1 ZINC000001530762    0.0600
28     H28     0.1592   -1.6138    1.6593 H        1 ZINC000001530762    0.0600
29     H29     1.8631   -1.7620    2.8492 H        1 ZINC000001530762    0.1400
30     H30     3.0755   -2.4221    4.8814 H        1 ZINC000001530762    0.1400
31     H31     4.2171   -5.1176    8.2744 H        1 ZINC000001530762    0.0800
32     H32     5.7612   -4.9756    7.4004 H        1 ZINC000001530762    0.0700
33     H33     5.8549   -3.5831    9.4089 H        1 ZINC000001530762    0.0900
34     H34     5.8021   -2.5279    7.9764 H        1 ZINC000001530762    0.0600
35     H35     5.0287   -2.2192   10.8922 H        1 ZINC000001530762    0.0700
36     H36     4.7782   -0.7997    9.8479 H        1 ZINC000001530762    0.0400
37     H37     3.2572   -0.6739   11.7670 H        1 ZINC000001530762    0.0600
38     H38     2.3140   -0.9649   10.2858 H        1 ZINC000001530762    0.0600
39     H39     2.6344   -2.3036   11.4142 H        1 ZINC000001530762    0.0600
40     H40     2.9634   -2.5839    7.2751 H        1 ZINC000001530762    0.0900
41     H41     2.4715   -1.3416    8.4511 H        1 ZINC000001530762    0.0700
42     H42     3.7341   -0.2754    6.6465 H        1 ZINC000001530762    0.0600
43     H43     4.7052   -0.2323    8.1376 H        1 ZINC000001530762    0.0500
44     H44     5.0777   -1.4219    6.8670 H        1 ZINC000001530762    0.0600
45     H45     2.7899   -6.5408    3.7093 H        1 ZINC000001530762    0.1400
46     H46     1.6564   -7.0282    1.6346 H        1 ZINC000001530762    0.4000
47     H47     0.9909   -5.8256    0.6683 H        1 ZINC000001530762    0.4100
@<TRIPOS>BOND
1     1     2     1
2     1     22    1
3     1     23    1
4     1     24    1
5     2     3     1
6     2     25    1
7     2     26    1
8     3     4     1
9     3     27    1
10    3     28    1
11    4     5     1
12    5     20    ar
13    5     6     ar
14    6     7     ar
15    6     29    1
16    7     8     ar
17    7     30    1
18    8     9     1
19    8     19    ar
20    9     10    2
21    9     11    1
22    11    12    1
23    12    13    1
24    12    31    1
25    12    32    1
26    13    14    1
27    13    33    1
28    13    34    1
29    14    15    1
30    14    17    1
31    15    16    1
32    15    35    1
33    15    36    1
34    16    37    1
35    16    38    1
36    16    39    1
37    17    18    1
38    17    40    1
39    17    41    1
40    18    42    1
41    18    43    1
42    18    44    1
43    19    20    ar
44    19    45    1
45    20    21    1
46    21    46    1
47    21    47    1
@<TRIPOS>SUBSTRUCTURE
1   ZINC000001530762 1     RESIDUE    1   A     ZIN   1
