@<TRIPOS>MOLECULE
ZINC000001530977
44    46    1     0     0
SMALL
USER_CHARGES
@<TRIPOS>ATOM
1      C1      0.2771    1.5487   -0.0164 C.3      1 ZINC000001530977   -0.0500
2      N2      0.0740    0.0939   -0.0077 N.4      1 ZINC000001530977   -0.3900
3      H3     -0.9108   -0.1077    0.0795 H        1 ZINC000001530977    0.4200
4      C4      0.7967   -0.4947    1.1278 C.3      1 ZINC000001530977    0.0400
5      C5      0.1939   -0.0003    2.4175 C.2      1 ZINC000001530977   -0.2500
6      C6     -0.2294   -0.8673    3.3266 C.2      1 ZINC000001530977   -0.0200
7      C7     -0.8205   -0.3824    4.5916 C.ar     1 ZINC000001530977   -0.1000
8      C8     -0.9397    0.9873    4.8295 C.ar     1 ZINC000001530977   -0.1000
9      C9     -1.4923    1.4335    6.0124 C.ar     1 ZINC000001530977   -0.1200
10     C10    -1.9275    0.5260    6.9616 C.ar     1 ZINC000001530977   -0.1000
11     C11    -1.8118   -0.8333    6.7320 C.ar     1 ZINC000001530977   -0.1200
12     C12    -1.2671   -1.2925    5.5504 C.ar     1 ZINC000001530977   -0.0900
13     C13     0.5820   -0.4790   -1.2614 C.3      1 ZINC000001530977    0.0400
14     C14    -0.2508    0.0185   -2.4147 C.ar     1 ZINC000001530977   -0.1600
15     C15    -1.5416   -0.4945   -2.6266 C.ar     1 ZINC000001530977   -0.0300
16     C16    -2.0861   -1.4740   -1.7785 C.ar     1 ZINC000001530977   -0.1500
17     C17    -3.3400   -1.9472   -2.0145 C.ar     1 ZINC000001530977   -0.0800
18     C18    -4.0952   -1.4755   -3.0868 C.ar     1 ZINC000001530977   -0.1200
19     C19    -3.6007   -0.5279   -3.9291 C.ar     1 ZINC000001530977   -0.0800
20     C20    -2.3098   -0.0143   -3.7169 C.ar     1 ZINC000001530977   -0.0600
21     C21    -1.7655    0.9650   -4.5646 C.ar     1 ZINC000001530977   -0.0600
22     C22    -0.5117    1.4394   -4.3279 C.ar     1 ZINC000001530977   -0.1300
23     C23     0.2415    0.9711   -3.2532 C.ar     1 ZINC000001530977   -0.0600
24     H24     1.3451    1.7664   -0.0243 H        1 ZINC000001530977    0.1200
25     H25    -0.1872    1.9751   -0.9056 H        1 ZINC000001530977    0.1200
26     H26    -0.1759    1.9841    0.8743 H        1 ZINC000001530977    0.1200
27     H27     0.7197   -1.5811    1.0838 H        1 ZINC000001530977    0.1300
28     H28     1.8458   -0.2026    1.0816 H        1 ZINC000001530977    0.1400
29     H29     0.1069    1.0604    2.6012 H        1 ZINC000001530977    0.1400
30     H30    -0.1423   -1.9280    3.1429 H        1 ZINC000001530977    0.1300
31     H31    -0.5997    1.6967    4.0896 H        1 ZINC000001530977    0.1200
32     H32    -1.5851    2.4934    6.1978 H        1 ZINC000001530977    0.1300
33     H33    -2.3591    0.8803    7.8861 H        1 ZINC000001530977    0.1300
34     H34    -2.1528   -1.5366    7.4774 H        1 ZINC000001530977    0.1300
35     H35    -1.1776   -2.3539    5.3722 H        1 ZINC000001530977    0.1300
36     H36     1.6192   -0.1764   -1.4051 H        1 ZINC000001530977    0.1400
37     H37     0.5240   -1.5664   -1.2137 H        1 ZINC000001530977    0.1400
38     H38    -1.5123   -1.8494   -0.9441 H        1 ZINC000001530977    0.1200
39     H39    -3.7561   -2.6999   -1.3612 H        1 ZINC000001530977    0.1300
40     H40    -5.0877   -1.8682   -3.2520 H        1 ZINC000001530977    0.1300
41     H41    -4.1972   -0.1724   -4.7563 H        1 ZINC000001530977    0.1400
42     H42    -2.3387    1.3391   -5.4000 H        1 ZINC000001530977    0.1400
43     H43    -0.0956    2.1919   -4.9813 H        1 ZINC000001530977    0.1400
44     H44     1.2336    1.3644   -3.0875 H        1 ZINC000001530977    0.1300
@<TRIPOS>BOND
1     1     2     1
2     1     24    1
3     1     25    1
4     1     26    1
5     2     3     1
6     2     4     1
7     2     13    1
8     4     5     1
9     4     27    1
10    4     28    1
11    5     6     2
12    5     29    1
13    6     7     1
14    6     30    1
15    7     12    ar
16    7     8     ar
17    8     9     ar
18    8     31    1
19    9     10    ar
20    9     32    1
21    10    11    ar
22    10    33    1
23    11    12    ar
24    11    34    1
25    12    35    1
26    13    14    1
27    13    36    1
28    13    37    1
29    14    23    ar
30    14    15    ar
31    15    20    ar
32    15    16    ar
33    16    17    ar
34    16    38    1
35    17    18    ar
36    17    39    1
37    18    19    ar
38    18    40    1
39    19    20    ar
40    19    41    1
41    20    21    ar
42    21    22    ar
43    21    42    1
44    22    23    ar
45    22    43    1
46    23    44    1
@<TRIPOS>SUBSTRUCTURE
1   ZINC000001530977 1     RESIDUE    1   A     ZIN   1

@<TRIPOS>MOLECULE
ZINC000001530977
44    46    1     0     0
SMALL
USER_CHARGES
@<TRIPOS>ATOM
1      C1     -0.0178    1.4648    0.0101 C.3      1 ZINC000001530977   -0.0500
2      N2      0.0021   -0.0041    0.0020 N.4      1 ZINC000001530977   -0.3800
3      H3     -0.9445   -0.3533    0.0092 H        1 ZINC000001530977    0.4200
4      C4      0.6897   -0.4778   -1.2066 C.3      1 ZINC000001530977    0.0400
5      C5     -0.1057   -0.0832   -2.4243 C.2      1 ZINC000001530977   -0.2500
6      C6      0.4692    0.6145   -3.3939 C.2      1 ZINC000001530977   -0.0200
7      C7     -0.3109    1.0016   -4.5883 C.ar     1 ZINC000001530977   -0.1000
8      C8     -1.6541    0.6391   -4.6956 C.ar     1 ZINC000001530977   -0.1000
9      C9     -2.3767    1.0034   -5.8131 C.ar     1 ZINC000001530977   -0.1200
10     C10    -1.7722    1.7262   -6.8260 C.ar     1 ZINC000001530977   -0.1000
11     C11    -0.4407    2.0884   -6.7259 C.ar     1 ZINC000001530977   -0.1200
12     C12     0.2912    1.7360   -5.6106 C.ar     1 ZINC000001530977   -0.0900
13     C13     0.7126   -0.4907    1.1921 C.3      1 ZINC000001530977    0.0400
14     C14    -0.0593   -0.1093    2.4290 C.ar     1 ZINC000001530977   -0.1600
15     C15    -1.1691   -0.8710    2.8318 C.ar     1 ZINC000001530977   -0.0300
16     C16    -1.5852   -1.9973    2.1013 C.ar     1 ZINC000001530977   -0.1500
17     C17    -2.6646   -2.7115    2.5219 C.ar     1 ZINC000001530977   -0.0800
18     C18    -3.3666   -2.3430    3.6682 C.ar     1 ZINC000001530977   -0.1200
19     C19    -2.9931   -1.2584    4.4003 C.ar     1 ZINC000001530977   -0.0800
20     C20    -1.8827   -0.4966    3.9978 C.ar     1 ZINC000001530977   -0.0600
21     C21    -1.4667    0.6293    4.7282 C.ar     1 ZINC000001530977   -0.0600
22     C22    -0.3862    1.3429    4.3083 C.ar     1 ZINC000001530977   -0.1300
23     C23     0.3184    0.9719    3.1649 C.ar     1 ZINC000001530977   -0.0600
24     H24     1.0047    1.8421    0.0024 H        1 ZINC000001530977    0.1200
25     H25    -0.5450    1.8259   -0.8730 H        1 ZINC000001530977    0.1200
26     H26    -0.5280    1.8163    0.9069 H        1 ZINC000001530977    0.1200
27     H27     1.6817   -0.0294   -1.2596 H        1 ZINC000001530977    0.1300
28     H28     0.7830   -1.5632   -1.1697 H        1 ZINC000001530977    0.1400
29     H29    -1.1439   -0.3688   -2.5070 H        1 ZINC000001530977    0.1400
30     H30     1.5074    0.9002   -3.3112 H        1 ZINC000001530977    0.1300
31     H31    -2.1269    0.0742   -3.9059 H        1 ZINC000001530977    0.1200
32     H32    -3.4163    0.7234   -5.8974 H        1 ZINC000001530977    0.1300
33     H33    -2.3420    2.0087   -7.6989 H        1 ZINC000001530977    0.1300
34     H34     0.0256    2.6521   -7.5204 H        1 ZINC000001530977    0.1300
35     H35     1.3304    2.0196   -5.5335 H        1 ZINC000001530977    0.1300
36     H36     0.8051   -1.5756    1.1418 H        1 ZINC000001530977    0.1400
37     H37     1.7055   -0.0428    1.2310 H        1 ZINC000001530977    0.1400
38     H38    -1.0513   -2.2943    1.2107 H        1 ZINC000001530977    0.1200
39     H39    -2.9822   -3.5766    1.9587 H        1 ZINC000001530977    0.1300
40     H40    -4.2201   -2.9268    3.9799 H        1 ZINC000001530977    0.1300
41     H41    -3.5471   -0.9844    5.2860 H        1 ZINC000001530977    0.1400
42     H42    -2.0016    0.9272    5.6179 H        1 ZINC000001530977    0.1400
43     H43    -0.0687    2.2081    4.8713 H        1 ZINC000001530977    0.1400
44     H44     1.1723    1.5551    2.8536 H        1 ZINC000001530977    0.1300
@<TRIPOS>BOND
1     1     2     1
2     1     24    1
3     1     25    1
4     1     26    1
5     2     3     1
6     2     4     1
7     2     13    1
8     4     5     1
9     4     27    1
10    4     28    1
11    5     6     2
12    5     29    1
13    6     7     1
14    6     30    1
15    7     12    ar
16    7     8     ar
17    8     9     ar
18    8     31    1
19    9     10    ar
20    9     32    1
21    10    11    ar
22    10    33    1
23    11    12    ar
24    11    34    1
25    12    35    1
26    13    14    1
27    13    36    1
28    13    37    1
29    14    23    ar
30    14    15    ar
31    15    20    ar
32    15    16    ar
33    16    17    ar
34    16    38    1
35    17    18    ar
36    17    39    1
37    18    19    ar
38    18    40    1
39    19    20    ar
40    19    41    1
41    20    21    ar
42    21    22    ar
43    21    42    1
44    22    23    ar
45    22    43    1
46    23    44    1
@<TRIPOS>SUBSTRUCTURE
1   ZINC000001530977 1     RESIDUE    1   A     ZIN   1

@<TRIPOS>MOLECULE
ZINC000001530977
43    45    1     0     0
SMALL
USER_CHARGES
@<TRIPOS>ATOM
1      C1     -0.0178    1.4648    0.0101 C.3      1 ZINC000001530977    0.0200
2      N2      0.0021   -0.0041    0.0020 N.3      1 ZINC000001530977   -0.5300
3      C3      0.7062   -0.5275    1.1802 C.3      1 ZINC000001530977    0.0800
4      C4      2.1628   -0.1488    1.1043 C.2      1 ZINC000001530977   -0.1300
5      C5      2.7301    0.5078    2.1065 C.2      1 ZINC000001530977   -0.1200
6      C6      4.1588    0.8793    2.0321 C.ar     1 ZINC000001530977   -0.0600
7      C7      4.9118    0.5453    0.9058 C.ar     1 ZINC000001530977   -0.1100
8      C8      6.2450    0.8949    0.8425 C.ar     1 ZINC000001530977   -0.1200
9      C9      6.8356    1.5747    1.8928 C.ar     1 ZINC000001530977   -0.1200
10     C10     6.0946    1.9084    3.0124 C.ar     1 ZINC000001530977   -0.1200
11     C11     4.7589    1.5704    3.0853 C.ar     1 ZINC000001530977   -0.1100
12     C12    -1.3597   -0.5486   -0.0825 C.3      1 ZINC000001530977    0.0900
13     C13    -1.9618   -0.1908   -1.4168 C.ar     1 ZINC000001530977   -0.0600
14     C14    -1.6371   -0.9384   -2.5613 C.ar     1 ZINC000001530977   -0.0300
15     C15    -0.7524   -2.0284   -2.4944 C.ar     1 ZINC000001530977   -0.0900
16     C16    -0.4615   -2.7297   -3.6238 C.ar     1 ZINC000001530977   -0.1200
17     C17    -1.0277   -2.3836   -4.8495 C.ar     1 ZINC000001530977   -0.1100
18     C18    -1.8881   -1.3342   -4.9526 C.ar     1 ZINC000001530977   -0.1100
19     C19    -2.2134   -0.5867   -3.8077 C.ar     1 ZINC000001530977   -0.0500
20     C20    -3.0979    0.5029   -3.8746 C.ar     1 ZINC000001530977   -0.1100
21     C21    -3.3900    1.2037   -2.7447 C.ar     1 ZINC000001530977   -0.1200
22     C22    -2.8275    0.8548   -1.5186 C.ar     1 ZINC000001530977   -0.1100
23     H23     1.0047    1.8421    0.0024 H        1 ZINC000001530977    0.0700
24     H24    -0.5450    1.8259   -0.8730 H        1 ZINC000001530977    0.0700
25     H25    -0.5280    1.8163    0.9069 H        1 ZINC000001530977    0.0300
26     H26     0.2673   -0.1040    2.0837 H        1 ZINC000001530977    0.0400
27     H27     0.6139   -1.6133    1.2060 H        1 ZINC000001530977    0.0900
28     H28     2.7446   -0.4123    0.2334 H        1 ZINC000001530977    0.1200
29     H29     2.1483    0.7713    2.9775 H        1 ZINC000001530977    0.1200
30     H30     4.4521    0.0141    0.0855 H        1 ZINC000001530977    0.1200
31     H31     6.8289    0.6371   -0.0287 H        1 ZINC000001530977    0.1200
32     H32     7.8796    1.8458    1.8385 H        1 ZINC000001530977    0.1200
33     H33     6.5617    2.4385    3.8293 H        1 ZINC000001530977    0.1200
34     H34     4.1815    1.8317    3.9597 H        1 ZINC000001530977    0.1200
35     H35    -1.3244   -1.6331    0.0212 H        1 ZINC000001530977    0.0900
36     H36    -1.9698   -0.1268    0.7163 H        1 ZINC000001530977    0.0500
37     H37    -0.3055   -2.3078   -1.5517 H        1 ZINC000001530977    0.1300
38     H38     0.2187   -3.5669   -3.5696 H        1 ZINC000001530977    0.1200
39     H39    -0.7797   -2.9566   -5.7307 H        1 ZINC000001530977    0.1200
40     H40    -2.3186   -1.0772   -5.9091 H        1 ZINC000001530977    0.1300
41     H41    -3.5435    0.7832   -4.8176 H        1 ZINC000001530977    0.1300
42     H42    -4.0699    2.0410   -2.7989 H        1 ZINC000001530977    0.1200
43     H43    -3.0761    1.4272   -0.6371 H        1 ZINC000001530977    0.1200
@<TRIPOS>BOND
1     1     2     1
2     1     23    1
3     1     24    1
4     1     25    1
5     2     3     1
6     2     12    1
7     3     4     1
8     3     26    1
9     3     27    1
10    4     5     2
11    4     28    1
12    5     6     1
13    5     29    1
14    6     11    ar
15    6     7     ar
16    7     8     ar
17    7     30    1
18    8     9     ar
19    8     31    1
20    9     10    ar
21    9     32    1
22    10    11    ar
23    10    33    1
24    11    34    1
25    12    13    1
26    12    35    1
27    12    36    1
28    13    22    ar
29    13    14    ar
30    14    19    ar
31    14    15    ar
32    15    16    ar
33    15    37    1
34    16    17    ar
35    16    38    1
36    17    18    ar
37    17    39    1
38    18    19    ar
39    18    40    1
40    19    20    ar
41    20    21    ar
42    20    41    1
43    21    22    ar
44    21    42    1
45    22    43    1
@<TRIPOS>SUBSTRUCTURE
1   ZINC000001530977 1     RESIDUE    1   A     ZIN   1
