@<TRIPOS>MOLECULE
ZINC000000895034
  14   13    0    0    0
SMALL
USER_CHARGES
NO_NAME
@<TRIPOS>ATOM
    1 N1       -0.0116     1.0048     0.0076 N.4    1 <0>      -0.6100
    2 H2        0.0021    -0.0041     0.0020 H      1 <0>       0.4300
    3 H3        0.9350     1.3541     0.0004 H      1 <0>       0.4300
    4 H4       -0.4996     1.3391    -0.8099 H      1 <0>       0.4200
    5 C5       -0.6992     1.4786     1.2162 C.3    1 <0>      -0.0400
    6 H6       -0.7140     2.5685     1.2222 H      1 <0>       0.1400
    7 C7       -2.1346     0.9490     1.2270 C.3    1 <0>       0.0700
    8 O8       -2.8594     1.5150     0.1333 O.3    1 <0>      -0.5900
    9 C9        0.0297     0.9794     2.4371 C.2    1 <0>       0.4900
   10 O10      -0.2657     1.4060     3.5403 O.co2  1 <0>      -0.6300
   11 O11       0.9147     0.1488     2.3216 O.co2  1 <0>      -0.6700
   12 H12      -2.1220    -0.1367     1.1315 H      1 <0>       0.0700
   13 H13      -2.6169     1.2257     2.1646 H      1 <0>       0.0900
   14 H14      -3.7795     1.2228     0.0780 H      1 <0>       0.4000
@<TRIPOS>BOND
   1    1    2 1
   2    1    3 1
   3    1    4 1
   4    1    5 1
   5    5    6 1
   6    5    7 1
   7    5    9 1
   8    7    8 1
   9    7   12 1
  10    7   13 1
  11    8   14 1
  12    9   10 ar
  13    9   11 ar

@<TRIPOS>MOLECULE
ZINC000000895034
  13   12    0    0    0
SMALL
USER_CHARGES
NO_NAME
@<TRIPOS>ATOM
    1 N1       -0.0178     1.4648     0.0101 N.3    1 <0>      -0.8200
    2 C2        0.0021    -0.0041     0.0020 C.3    1 <0>       0.0300
    3 H3       -1.0205    -0.3814     0.0098 H      1 <0>       0.0800
    4 C4        0.7182    -0.4975    -1.2568 C.3    1 <0>       0.0500
    5 O5       -0.0359    -0.1233    -2.4115 O.3    1 <0>      -0.5800
    6 C6        0.7309    -0.5033     1.2229 C.2    1 <0>       0.5000
    7 O7        0.7050    -1.6889     1.5061 O.co2  1 <0>      -0.7000
    8 O8        1.3465     0.2784     1.9275 O.co2  1 <0>      -0.6800
    9 H9        0.9191     1.8392     0.0032 H      1 <0>       0.3400
   10 H10      -0.5563     1.8234    -0.7642 H      1 <0>       0.3200
   11 H11       1.7103    -0.0491    -1.3098 H      1 <0>       0.0400
   12 H12       0.8116    -1.5829    -1.2198 H      1 <0>       0.0500
   13 H13       0.3599    -0.4042    -3.2478 H      1 <0>       0.3700
@<TRIPOS>BOND
   1    1    2 1
   2    1    9 1
   3    1   10 1
   4    2    3 1
   5    2    4 1
   6    2    6 1
   7    4    5 1
   8    4   11 1
   9    4   12 1
  10    5   13 1
  11    6    7 ar
  12    6    8 ar
