@<TRIPOS>MOLECULE
ZINC000000009342
45    46    1     0     0
SMALL
USER_CHARGES
@<TRIPOS>ATOM
1      C1      0.4175    0.9046   -0.2014 C.3      1 ZINC000000009342   -0.0500
2      N2      0.1291   -0.5225   -0.3967 N.4      1 ZINC000000009342   -0.3800
3      H3      0.3762   -0.7899   -1.3377 H        1 ZINC000000009342    0.4300
4      C4      0.9127   -1.3158    0.5596 C.3      1 ZINC000000009342   -0.0500
5      C5     -1.3029   -0.7670   -0.1783 C.3      1 ZINC000000009342   -0.0100
6      C6     -2.1161   -0.0057   -1.2271 C.3      1 ZINC000000009342   -0.0500
7      H7     -1.8473    1.0503   -1.1990 H        1 ZINC000000009342    0.1100
8      C8     -3.5858   -0.1580   -0.9309 C.ar     1 ZINC000000009342   -0.1100
9      C9     -4.1012   -1.4019   -0.6165 C.ar     1 ZINC000000009342   -0.1000
10     C10    -5.4481   -1.5441   -0.3446 C.ar     1 ZINC000000009342   -0.1400
11     C11    -6.2837   -0.4375   -0.3867 C.ar     1 ZINC000000009342    0.1300
12     O12    -7.6090   -0.5747   -0.1191 O.3      1 ZINC000000009342   -0.5000
13     C13    -5.7640    0.8096   -0.7019 C.ar     1 ZINC000000009342   -0.1400
14     C14    -4.4155    0.9474   -0.9683 C.ar     1 ZINC000000009342   -0.0800
15     C15    -1.8144   -0.5720   -2.6161 C.3      1 ZINC000000009342    0.1300
16     O16    -0.4623   -0.2730   -2.9690 O.3      1 ZINC000000009342   -0.5800
17     C17    -2.0147   -2.0887   -2.6030 C.3      1 ZINC000000009342   -0.1600
18     C18    -1.7130   -2.6550   -3.9919 C.3      1 ZINC000000009342   -0.1200
19     C19    -2.6587   -2.0245   -5.0161 C.3      1 ZINC000000009342   -0.1300
20     C20    -2.4585   -0.5078   -5.0292 C.3      1 ZINC000000009342   -0.1300
21     C21    -2.7601    0.0585   -3.6403 C.3      1 ZINC000000009342   -0.1400
22     H22     1.4800    1.0861   -0.3634 H        1 ZINC000000009342    0.1200
23     H23    -0.1640    1.4932   -0.9109 H        1 ZINC000000009342    0.1200
24     H24     0.1505    1.1934    0.8152 H        1 ZINC000000009342    0.1200
25     H25     0.6457   -1.0270    1.5761 H        1 ZINC000000009342    0.1200
26     H26     0.6987   -2.3747    0.4146 H        1 ZINC000000009342    0.1200
27     H27     1.9752   -1.1344    0.3975 H        1 ZINC000000009342    0.1200
28     H28    -1.5066   -1.8343   -0.2651 H        1 ZINC000000009342    0.1300
29     H29    -1.5823   -0.4236    0.8177 H        1 ZINC000000009342    0.1300
30     H30    -3.4503   -2.2631   -0.5839 H        1 ZINC000000009342    0.1300
31     H31    -5.8504   -2.5161   -0.0998 H        1 ZINC000000009342    0.1400
32     H32    -7.8354   -0.4633    0.8144 H        1 ZINC000000009342    0.4000
33     H33    -6.4126    1.6726   -0.7356 H        1 ZINC000000009342    0.1400
34     H34    -4.0104    1.9181   -1.2134 H        1 ZINC000000009342    0.1300
35     H35    -0.2009   -0.6029   -3.8396 H        1 ZINC000000009342    0.4000
36     H36    -1.3409   -2.5379   -1.8733 H        1 ZINC000000009342    0.0600
37     H37    -3.0460   -2.3168   -2.3338 H        1 ZINC000000009342    0.1000
38     H38    -0.6817   -2.4270   -4.2611 H        1 ZINC000000009342    0.0600
39     H39    -1.8557   -3.7356   -3.9826 H        1 ZINC000000009342    0.0800
40     H40    -2.4438   -2.4280   -6.0057 H        1 ZINC000000009342    0.0700
41     H41    -3.6900   -2.2526   -4.7470 H        1 ZINC000000009342    0.0700
42     H42    -1.4271   -0.2798   -5.2984 H        1 ZINC000000009342    0.0600
43     H43    -3.1322   -0.0586   -5.7589 H        1 ZINC000000009342    0.0800
44     H44    -3.7915   -0.1695   -3.3711 H        1 ZINC000000009342    0.0800
45     H45    -2.6175    1.1391   -3.6496 H        1 ZINC000000009342    0.0800
@<TRIPOS>BOND
1     1     2     1
2     1     22    1
3     1     23    1
4     1     24    1
5     2     3     1
6     2     4     1
7     2     5     1
8     4     25    1
9     4     26    1
10    4     27    1
11    5     6     1
12    5     28    1
13    5     29    1
14    6     7     1
15    6     8     1
16    6     15    1
17    8     14    ar
18    8     9     ar
19    9     10    ar
20    9     30    1
21    10    11    ar
22    10    31    1
23    11    12    1
24    11    13    ar
25    12    32    1
26    13    14    ar
27    13    33    1
28    14    34    1
29    15    21    1
30    15    16    1
31    15    17    1
32    16    35    1
33    17    18    1
34    17    36    1
35    17    37    1
36    18    19    1
37    18    38    1
38    18    39    1
39    19    20    1
40    19    40    1
41    19    41    1
42    20    21    1
43    20    42    1
44    20    43    1
45    21    44    1
46    21    45    1
@<TRIPOS>SUBSTRUCTURE
1   ZINC000000009342 1     RESIDUE    1   A     ZIN   1

@<TRIPOS>MOLECULE
ZINC000000009342
44    45    1     0     0
SMALL
USER_CHARGES
@<TRIPOS>ATOM
1      C1     -0.2084    1.0168    0.5828 C.3      1 ZINC000000009342    0.0100
2      N2     -0.1846   -0.4072    0.2231 N.3      1 ZINC000000009342   -0.5300
3      C3      0.3747   -1.2165    1.3141 C.3      1 ZINC000000009342    0.0200
4      C4     -1.5253   -0.8789   -0.1483 C.3      1 ZINC000000009342    0.0600
5      C5     -1.9710   -0.1854   -1.4372 C.3      1 ZINC000000009342   -0.0300
6      H6     -1.8776    0.8942   -1.3198 H        1 ZINC000000009342    0.0900
7      C7     -3.4078   -0.5368   -1.7257 C.ar     1 ZINC000000009342   -0.0800
8      C8     -3.8112   -1.8592   -1.7107 C.ar     1 ZINC000000009342   -0.0800
9      C9     -5.1277   -2.1840   -1.9748 C.ar     1 ZINC000000009342   -0.1500
10     C10    -6.0453   -1.1820   -2.2550 C.ar     1 ZINC000000009342    0.1000
11     O11    -7.3411   -1.4989   -2.5147 O.3      1 ZINC000000009342   -0.5000
12     C12    -5.6381    0.1442   -2.2690 C.ar     1 ZINC000000009342   -0.1500
13     C13    -4.3215    0.4641   -1.9995 C.ar     1 ZINC000000009342   -0.1000
14     C14    -1.0892   -0.6504   -2.5978 C.3      1 ZINC000000009342    0.1600
15     O15    -1.0946   -2.0782   -2.6577 O.3      1 ZINC000000009342   -0.5600
16     C16    -1.6328   -0.0829   -3.9106 C.3      1 ZINC000000009342   -0.1500
17     C17    -0.7510   -0.5479   -5.0712 C.3      1 ZINC000000009342   -0.1200
18     C18     0.6801   -0.0519   -4.8550 C.3      1 ZINC000000009342   -0.1200
19     C19     1.2237   -0.6195   -3.5422 C.3      1 ZINC000000009342   -0.1200
20     C20     0.3419   -0.1545   -2.3816 C.3      1 ZINC000000009342   -0.1600
21     H21     0.8069    1.3574    0.7856 H        1 ZINC000000009342    0.0700
22     H22    -0.6270    1.5930   -0.2423 H        1 ZINC000000009342    0.0700
23     H23    -0.8229    1.1567    1.4722 H        1 ZINC000000009342    0.0300
24     H24    -0.2743   -1.1477    2.1871 H        1 ZINC000000009342    0.0300
25     H25     0.4460   -2.2564    0.9954 H        1 ZINC000000009342    0.0700
26     H26     1.3675   -0.8459    1.5693 H        1 ZINC000000009342    0.0700
27     H27    -1.5003   -1.9572   -0.3059 H        1 ZINC000000009342    0.0900
28     H28    -2.2274   -0.6448    0.6518 H        1 ZINC000000009342    0.0300
29     H29    -3.0965   -2.6389   -1.4925 H        1 ZINC000000009342    0.1400
30     H30    -5.4422   -3.2171   -1.9636 H        1 ZINC000000009342    0.1300
31     H31    -7.9051   -1.5231   -1.7296 H        1 ZINC000000009342    0.3900
32     H32    -6.3505    0.9260   -2.4872 H        1 ZINC000000009342    0.1300
33     H33    -4.0041    1.4963   -2.0100 H        1 ZINC000000009342    0.1200
34     H34    -0.5549   -2.4439   -3.3719 H        1 ZINC000000009342    0.3700
35     H35    -2.6524   -0.4362   -4.0646 H        1 ZINC000000009342    0.0700
36     H36    -1.6287    1.0062   -3.8649 H        1 ZINC000000009342    0.0700
37     H37    -0.7551   -1.6370   -5.1169 H        1 ZINC000000009342    0.0600
38     H38    -1.1383   -0.1436   -6.0064 H        1 ZINC000000009342    0.0600
39     H39     1.3083   -0.3833   -5.6818 H        1 ZINC000000009342    0.0600
40     H40     0.6842    1.0371   -4.8093 H        1 ZINC000000009342    0.0600
41     H41     1.2196   -1.7086   -3.5879 H        1 ZINC000000009342    0.0600
42     H42     2.2432   -0.2662   -3.3882 H        1 ZINC000000009342    0.0600
43     H43     0.3460    0.9346   -2.3359 H        1 ZINC000000009342    0.0600
44     H44     0.7292   -0.5588   -1.4464 H        1 ZINC000000009342    0.1200
@<TRIPOS>BOND
1     1     2     1
2     1     21    1
3     1     22    1
4     1     23    1
5     2     3     1
6     2     4     1
7     3     24    1
8     3     25    1
9     3     26    1
10    4     5     1
11    4     27    1
12    4     28    1
13    5     6     1
14    5     7     1
15    5     14    1
16    7     13    ar
17    7     8     ar
18    8     9     ar
19    8     29    1
20    9     10    ar
21    9     30    1
22    10    11    1
23    10    12    ar
24    11    31    1
25    12    13    ar
26    12    32    1
27    13    33    1
28    14    20    1
29    14    15    1
30    14    16    1
31    15    34    1
32    16    17    1
33    16    35    1
34    16    36    1
35    17    18    1
36    17    37    1
37    17    38    1
38    18    19    1
39    18    39    1
40    18    40    1
41    19    20    1
42    19    41    1
43    19    42    1
44    20    43    1
45    20    44    1
@<TRIPOS>SUBSTRUCTURE
1   ZINC000000009342 1     RESIDUE    1   A     ZIN   1
