@<TRIPOS>MOLECULE
ZINC000003813010
28    29    1     0     0
SMALL
USER_CHARGES
@<TRIPOS>ATOM
1      O1      0.0021   -0.0041    0.0020 O.2      1 ZINC000003813010   -0.4900
2      C2     -0.0144    1.2137    0.0087 C.2      1 ZINC000003813010    0.5400
3      N3     -1.1875    1.8781    0.0291 N.am     1 ZINC000003813010   -0.6500
4      C4     -1.2057    3.2238    0.0366 C.2      1 ZINC000003813010    0.7000
5      O5     -2.2717    3.8085    0.0550 O.2      1 ZINC000003813010   -0.5200
6      N6     -0.0616    3.9315    0.0243 N.am     1 ZINC000003813010   -0.5200
7      C7     -0.1137    5.3955    0.0333 C.3      1 ZINC000003813010    0.3000
8      H8     -1.1448    5.7384   -0.0516 H        1 ZINC000003813010    0.1400
9      C9      0.5325    5.9487    1.3229 C.3      1 ZINC000003813010   -0.2000
10     C10     1.2628    7.2284    0.8577 C.3      1 ZINC000003813010    0.0800
11     H11     2.3346    7.1430    1.0372 H        1 ZINC000003813010    0.0900
12     O12     0.7346    8.3767    1.5244 O.3      1 ZINC000003813010   -0.5500
13     C13     0.9716    7.2969   -0.6578 C.3      1 ZINC000003813010    0.0900
14     H14     0.1075    7.9330   -0.8497 H        1 ZINC000003813010    0.1000
15     C15     2.1953    7.8208   -1.4121 C.3      1 ZINC000003813010    0.0900
16     O16     1.8684    7.9868   -2.7933 O.3      1 ZINC000003813010   -0.5700
17     O17     0.6853    5.9337   -1.0427 O.3      1 ZINC000003813010   -0.3600
18     C18     1.1525    3.2953    0.0039 C.2      1 ZINC000003813010    0.1500
19     C19     1.1994    1.9455    0.0011 C.2      1 ZINC000003813010   -0.0700
20     F20     2.3870    1.3016   -0.0185 F        1 ZINC000003813010   -0.1000
21     H21    -2.0222    1.3839    0.0382 H        1 ZINC000003813010    0.4400
22     H22    -0.2331    6.1923    2.0595 H        1 ZINC000003813010    0.1100
23     H23     1.2431    5.2308    1.7323 H        1 ZINC000003813010    0.1000
24     H24     0.8384    8.3559    2.4856 H        1 ZINC000003813010    0.3900
25     H25     2.4975    8.7803   -0.9925 H        1 ZINC000003813010    0.0700
26     H26     3.0142    7.1080   -1.3157 H        1 ZINC000003813010    0.0600
27     H27     2.5993    8.3170   -3.3336 H        1 ZINC000003813010    0.3900
28     H28     2.0666    3.8703   -0.0063 H        1 ZINC000003813010    0.1900
@<TRIPOS>BOND
1     1     2     2
2     2     19    1
3     2     3     am
4     3     4     am
5     3     21    1
6     4     5     2
7     4     6     am
8     6     7     1
9     6     18    1
10    7     8     1
11    7     17    1
12    7     9     1
13    9     10    1
14    9     22    1
15    9     23    1
16    10    11    1
17    10    12    1
18    10    13    1
19    12    24    1
20    13    14    1
21    13    15    1
22    13    17    1
23    15    16    1
24    15    25    1
25    15    26    1
26    16    27    1
27    18    19    2
28    18    28    1
29    19    20    1
@<TRIPOS>SUBSTRUCTURE
1   ZINC000003813010 1     RESIDUE    1   A     ZIN   1

@<TRIPOS>MOLECULE
ZINC000003813010
27    28    1     0     0
SMALL
USER_CHARGES
@<TRIPOS>ATOM
1      O1      0.0021   -0.0041    0.0020 O.2      1 ZINC000003813010   -0.5800
2      C2     -0.0144    1.2137    0.0087 C.2      1 ZINC000003813010    0.5100
3      N3     -1.1875    1.8781    0.0291 N.pl3    1 ZINC000003813010   -0.6800
4      C4     -1.2057    3.2238    0.0370 C.2      1 ZINC000003813010    0.6500
5      O5     -2.2717    3.8085    0.0559 O.2      1 ZINC000003813010   -0.5900
6      N6     -0.0616    3.9315    0.0247 N.am     1 ZINC000003813010   -0.5400
7      C7     -0.1136    5.3955    0.0343 C.3      1 ZINC000003813010    0.3000
8      H8      0.8907    5.8096    0.1238 H        1 ZINC000003813010    0.0900
9      C9     -0.7982    5.9176   -1.2484 C.3      1 ZINC000003813010   -0.1900
10     C10    -1.6174    7.1362   -0.7673 C.3      1 ZINC000003813010    0.0800
11     H11    -2.6804    6.9772   -0.9482 H        1 ZINC000003813010    0.0800
12     O12    -1.1725    8.3275   -1.4192 O.3      1 ZINC000003813010   -0.5600
13     C13    -1.3308    7.2062    0.7491 C.3      1 ZINC000003813010    0.0900
14     H14    -0.5139    7.8995    0.9492 H        1 ZINC000003813010    0.0800
15     C15    -2.5881    7.6322    1.5096 C.3      1 ZINC000003813010    0.0900
16     O16    -2.2730    7.8035    2.8929 O.3      1 ZINC000003813010   -0.5700
17     O17    -0.9482    5.8619    1.1168 O.3      1 ZINC000003813010   -0.3400
18     C18     1.1525    3.2953    0.0039 C.2      1 ZINC000003813010    0.0900
19     C19     1.1994    1.9455    0.0011 C.2      1 ZINC000003813010   -0.1000
20     F20     2.3870    1.3016   -0.0189 F        1 ZINC000003813010   -0.1400
21     H21    -0.0523    6.2243   -1.9817 H        1 ZINC000003813010    0.0900
22     H22    -1.4563    5.1562   -1.6670 H        1 ZINC000003813010    0.1000
23     H23    -1.2751    8.3115   -2.3806 H        1 ZINC000003813010    0.3800
24     H24    -2.9580    8.5730    1.1020 H        1 ZINC000003813010    0.0600
25     H25    -3.3544    6.8642    1.4040 H        1 ZINC000003813010    0.0600
26     H26    -3.0251    8.0741    3.4371 H        1 ZINC000003813010    0.3800
27     H27     2.0666    3.8703   -0.0062 H        1 ZINC000003813010    0.1500
@<TRIPOS>BOND
1     1     2     2
2     2     19    1
3     2     3     1
4     3     4     1
5     4     5     2
6     4     6     am
7     6     7     1
8     6     18    1
9     7     8     1
10    7     17    1
11    7     9     1
12    9     10    1
13    9     21    1
14    9     22    1
15    10    11    1
16    10    12    1
17    10    13    1
18    12    23    1
19    13    14    1
20    13    15    1
21    13    17    1
22    15    16    1
23    15    24    1
24    15    25    1
25    16    26    1
26    18    19    2
27    18    27    1
28    19    20    1
@<TRIPOS>SUBSTRUCTURE
1   ZINC000003813010 1     RESIDUE    1   A     ZIN   1
