@<TRIPOS>MOLECULE
ZINC000000000196
47    48    1     0     0
SMALL
USER_CHARGES
@<TRIPOS>ATOM
1      C1     -0.0178    1.4648    0.0101 C.3      1 ZINC000000000196   -0.0600
2      N2      0.0021   -0.0041    0.0020 N.4      1 ZINC000000000196   -0.3900
3      H3      0.4744   -0.3295   -0.8281 H        1 ZINC000000000196    0.4300
4      C4      0.7126   -0.4907    1.1921 C.3      1 ZINC000000000196   -0.0500
5      C5     -1.3761   -0.5125    0.0124 C.3      1 ZINC000000000196    0.0000
6      C6     -2.0780   -0.1101   -1.2861 C.3      1 ZINC000000000196    0.0300
7      O7     -1.4341   -0.7687   -2.4086 O.3      1 ZINC000000000196   -0.3700
8      C8     -1.9333   -0.5197   -3.6294 C.2      1 ZINC000000000196    0.4800
9      O9     -2.8771    0.2240   -3.7560 O.2      1 ZINC000000000196   -0.4700
10     C10    -1.3166   -1.1677   -4.8422 C.3      1 ZINC000000000196   -0.0100
11     H11    -0.2705   -0.8714   -4.9200 H        1 ZINC000000000196    0.1300
12     C12    -2.0569   -0.7265   -6.0785 C.ar     1 ZINC000000000196   -0.1000
13     C13    -3.4084   -0.9882   -6.2051 C.ar     1 ZINC000000000196   -0.0600
14     C14    -4.0874   -0.5836   -7.3391 C.ar     1 ZINC000000000196   -0.1300
15     C15    -3.4152    0.0831   -8.3464 C.ar     1 ZINC000000000196   -0.1000
16     C16    -2.0639    0.3456   -8.2193 C.ar     1 ZINC000000000196   -0.1300
17     C17    -1.3858   -0.0553   -7.0834 C.ar     1 ZINC000000000196   -0.1100
18     C18    -1.4073   -2.6892   -4.7091 C.3      1 ZINC000000000196    0.1400
19     O19    -2.7735   -3.1056   -4.6646 O.3      1 ZINC000000000196   -0.5500
20     C20    -0.6646   -3.3809   -5.8792 C.3      1 ZINC000000000196   -0.1500
21     C21    -0.3312   -4.7762   -5.2952 C.3      1 ZINC000000000196   -0.1300
22     C22     0.0281   -4.4936   -3.8218 C.3      1 ZINC000000000196   -0.1300
23     C23    -0.6560   -3.1666   -3.4492 C.3      1 ZINC000000000196   -0.1500
24     H24     1.0047    1.8421    0.0024 H        1 ZINC000000000196    0.1300
25     H25    -0.5450    1.8259   -0.8730 H        1 ZINC000000000196    0.1200
26     H26    -0.5280    1.8163    0.9069 H        1 ZINC000000000196    0.1300
27     H27     0.2024   -0.1392    2.0889 H        1 ZINC000000000196    0.1200
28     H28     0.7273   -1.5806    1.1861 H        1 ZINC000000000196    0.1200
29     H29     1.7352   -0.1134    1.1844 H        1 ZINC000000000196    0.1300
30     H30    -1.3618   -1.5992    0.0960 H        1 ZINC000000000196    0.1400
31     H31    -1.9129   -0.0898    0.8617 H        1 ZINC000000000196    0.1500
32     H32    -3.1251   -0.4096   -1.2411 H        1 ZINC000000000196    0.1200
33     H33    -2.0144    0.9705   -1.4137 H        1 ZINC000000000196    0.1000
34     H34    -3.9336   -1.5091   -5.4182 H        1 ZINC000000000196    0.1300
35     H35    -5.1431   -0.7887   -7.4384 H        1 ZINC000000000196    0.1200
36     H36    -3.9456    0.3986   -9.2327 H        1 ZINC000000000196    0.1200
37     H37    -1.5386    0.8662   -9.0064 H        1 ZINC000000000196    0.1300
38     H38    -0.3301    0.1498   -6.9842 H        1 ZINC000000000196    0.1200
39     H39    -2.8907   -4.0617   -4.5806 H        1 ZINC000000000196    0.3800
40     H40    -1.3146   -3.4716   -6.7495 H        1 ZINC000000000196    0.0800
41     H41     0.2474   -2.8398   -6.1315 H        1 ZINC000000000196    0.0800
42     H42    -1.1990   -5.4329   -5.3570 H        1 ZINC000000000196    0.0700
43     H43     0.5186   -5.2153   -5.8177 H        1 ZINC000000000196    0.0800
44     H44    -0.3440   -5.2970   -3.1860 H        1 ZINC000000000196    0.0700
45     H45     1.1086   -4.4002   -3.7123 H        1 ZINC000000000196    0.0700
46     H46     0.0924   -2.4293   -3.1589 H        1 ZINC000000000196    0.0700
47     H47    -1.3602   -3.3260   -2.6326 H        1 ZINC000000000196    0.0800
@<TRIPOS>BOND
1     1     2     1
2     1     24    1
3     1     25    1
4     1     26    1
5     2     3     1
6     2     4     1
7     2     5     1
8     4     27    1
9     4     28    1
10    4     29    1
11    5     6     1
12    5     30    1
13    5     31    1
14    6     7     1
15    6     32    1
16    6     33    1
17    7     8     1
18    8     9     2
19    8     10    1
20    10    11    1
21    10    12    1
22    10    18    1
23    12    17    ar
24    12    13    ar
25    13    14    ar
26    13    34    1
27    14    15    ar
28    14    35    1
29    15    16    ar
30    15    36    1
31    16    17    ar
32    16    37    1
33    17    38    1
34    18    23    1
35    18    19    1
36    18    20    1
37    19    39    1
38    20    21    1
39    20    40    1
40    20    41    1
41    21    22    1
42    21    42    1
43    21    43    1
44    22    23    1
45    22    44    1
46    22    45    1
47    23    46    1
48    23    47    1
@<TRIPOS>SUBSTRUCTURE
1   ZINC000000000196 1     RESIDUE    1   A     ZIN   1

@<TRIPOS>MOLECULE
ZINC000000000196
46    47    1     0     0
SMALL
USER_CHARGES
@<TRIPOS>ATOM
1      C1     -0.0178    1.4648    0.0101 C.3      1 ZINC000000000196    0.0200
2      N2      0.0021   -0.0041    0.0020 N.3      1 ZINC000000000196   -0.5400
3      C3      0.7062   -0.5275    1.1802 C.3      1 ZINC000000000196    0.0200
4      C4     -1.3597   -0.5486   -0.0825 C.3      1 ZINC000000000196    0.0500
5      C5     -1.9710   -0.1854   -1.4372 C.3      1 ZINC000000000196    0.0700
6      O6     -1.2274   -0.8444   -2.4960 O.3      1 ZINC000000000196   -0.3300
7      C7     -1.6388   -0.6279   -3.7553 C.2      1 ZINC000000000196    0.4700
8      O8     -2.5887    0.0885   -3.9658 O.2      1 ZINC000000000196   -0.5000
9      C9     -0.9158   -1.2784   -4.9065 C.3      1 ZINC000000000196   -0.0200
10     H10     0.1254   -0.9559   -4.9104 H        1 ZINC000000000196    0.1200
11     C11    -1.5711   -0.8766   -6.2027 C.ar     1 ZINC000000000196   -0.0800
12     C12    -2.9020   -1.1758   -6.4262 C.ar     1 ZINC000000000196   -0.0600
13     C13    -3.5031   -0.8073   -7.6151 C.ar     1 ZINC000000000196   -0.1300
14     C14    -2.7734   -0.1390   -8.5805 C.ar     1 ZINC000000000196   -0.1100
15     C15    -1.4427    0.1611   -8.3566 C.ar     1 ZINC000000000196   -0.1300
16     C16    -0.8428   -0.2037   -7.1659 C.ar     1 ZINC000000000196   -0.1100
17     C17    -0.9779   -2.7995   -4.7536 C.3      1 ZINC000000000196    0.1400
18     O18    -2.3327   -3.2511   -4.8049 O.3      1 ZINC000000000196   -0.5500
19     C19    -0.1315   -3.4897   -5.8519 C.3      1 ZINC000000000196   -0.1400
20     C20     0.1916   -4.8663   -5.2198 C.3      1 ZINC000000000196   -0.1300
21     C21     0.4310   -4.5511   -3.7287 C.3      1 ZINC000000000196   -0.1300
22     C22    -0.3126   -3.2370   -3.4324 C.3      1 ZINC000000000196   -0.1500
23     H23     1.0047    1.8421    0.0024 H        1 ZINC000000000196    0.0700
24     H24    -0.5450    1.8259   -0.8730 H        1 ZINC000000000196    0.0700
25     H25    -0.5280    1.8163    0.9069 H        1 ZINC000000000196    0.0300
26     H26     0.1617   -0.2488    2.0824 H        1 ZINC000000000196    0.0300
27     H27     0.7676   -1.6137    1.1140 H        1 ZINC000000000196    0.0700
28     H28     1.7116   -0.1084    1.2186 H        1 ZINC000000000196    0.0700
29     H29    -1.3244   -1.6331    0.0212 H        1 ZINC000000000196    0.0900
30     H30    -1.9698   -0.1268    0.7163 H        1 ZINC000000000196    0.0600
31     H31    -3.0106   -0.5117   -1.4659 H        1 ZINC000000000196    0.0700
32     H32    -1.9251    0.8944   -1.5788 H        1 ZINC000000000196    0.0700
33     H33    -3.4721   -1.6980   -5.6720 H        1 ZINC000000000196    0.1300
34     H34    -4.5428   -1.0417   -7.7900 H        1 ZINC000000000196    0.1200
35     H35    -3.2429    0.1483   -9.5097 H        1 ZINC000000000196    0.1200
36     H36    -0.8725    0.6829   -9.1109 H        1 ZINC000000000196    0.1200
37     H37     0.1969    0.0308   -6.9909 H        1 ZINC000000000196    0.1200
38     H38    -2.4319   -4.2086   -4.7130 H        1 ZINC000000000196    0.3800
39     H39    -0.7111   -3.6113   -6.7670 H        1 ZINC000000000196    0.0800
40     H40     0.7831   -2.9287   -6.0443 H        1 ZINC000000000196    0.0800
41     H41    -0.6522   -5.5466   -5.3352 H        1 ZINC000000000196    0.0700
42     H42     1.0895   -5.2910   -5.6688 H        1 ZINC000000000196    0.0700
43     H43     0.0321   -5.3539   -3.1087 H        1 ZINC000000000196    0.0600
44     H44     1.4974   -4.4275   -3.5398 H        1 ZINC000000000196    0.0700
45     H45     0.3928   -2.4756   -3.0995 H        1 ZINC000000000196    0.0900
46     H46    -1.0724   -3.4020   -2.6685 H        1 ZINC000000000196    0.0800
@<TRIPOS>BOND
1     1     2     1
2     1     23    1
3     1     24    1
4     1     25    1
5     2     3     1
6     2     4     1
7     3     26    1
8     3     27    1
9     3     28    1
10    4     5     1
11    4     29    1
12    4     30    1
13    5     6     1
14    5     31    1
15    5     32    1
16    6     7     1
17    7     8     2
18    7     9     1
19    9     10    1
20    9     11    1
21    9     17    1
22    11    16    ar
23    11    12    ar
24    12    13    ar
25    12    33    1
26    13    14    ar
27    13    34    1
28    14    15    ar
29    14    35    1
30    15    16    ar
31    15    36    1
32    16    37    1
33    17    22    1
34    17    18    1
35    17    19    1
36    18    38    1
37    19    20    1
38    19    39    1
39    19    40    1
40    20    21    1
41    20    41    1
42    20    42    1
43    21    22    1
44    21    43    1
45    21    44    1
46    22    45    1
47    22    46    1
@<TRIPOS>SUBSTRUCTURE
1   ZINC000000000196 1     RESIDUE    1   A     ZIN   1
