@<TRIPOS>MOLECULE
ZINC000001530812
50    51    1     0     0
SMALL
USER_CHARGES
@<TRIPOS>ATOM
1      C1     -4.1632   -3.0522    0.8464 C.3      1 ZINC000001530812   -0.1600
2      C2     -2.9695   -3.9413    0.4922 C.3      1 ZINC000001530812   -0.1200
3      C3     -2.1150   -3.2480   -0.5709 C.3      1 ZINC000001530812   -0.1400
4      C4     -0.9212   -4.1371   -0.9251 C.3      1 ZINC000001530812   -0.0200
5      N5     -0.1008   -3.4715   -1.9458 N.4      1 ZINC000001530812   -0.3700
6      H6      0.1563   -2.5512   -1.6215 H        1 ZINC000001530812    0.4300
7      C7     -0.8709   -3.3529   -3.1896 C.3      1 ZINC000001530812   -0.0100
8      C8     -0.0508   -2.5884   -4.2309 C.3      1 ZINC000001530812   -0.1500
9      C9      1.2509   -3.3472   -4.5050 C.3      1 ZINC000001530812   -0.1300
10     C10     2.0106   -3.5300   -3.1879 C.3      1 ZINC000001530812   -0.1400
11     C11     1.1132   -4.2606   -2.1866 C.3      1 ZINC000001530812    0.0100
12     H12     0.8400   -5.2362   -2.5886 H        1 ZINC000001530812    0.1600
13     C13     1.8555   -4.4431   -0.8878 C.2      1 ZINC000001530812    0.5000
14     O14     1.7723   -3.6016   -0.0183 O.2      1 ZINC000001530812   -0.5000
15     N15     2.6118   -5.5414   -0.6925 N.am     1 ZINC000001530812   -0.6500
16     C16     3.2097   -5.7669    0.5523 C.ar     1 ZINC000001530812    0.1000
17     C17     4.0613   -4.8152    1.0978 C.ar     1 ZINC000001530812   -0.0600
18     C18     4.3425   -3.5374    0.3499 C.3      1 ZINC000001530812   -0.1100
19     C19     4.6499   -5.0407    2.3267 C.ar     1 ZINC000001530812   -0.1200
20     C20     4.3924   -6.2129    3.0137 C.ar     1 ZINC000001530812   -0.1000
21     C21     3.5452   -7.1627    2.4730 C.ar     1 ZINC000001530812   -0.1100
22     C22     2.9483   -6.9403    1.2476 C.ar     1 ZINC000001530812   -0.0800
23     C23     2.0252   -7.9760    0.6591 C.3      1 ZINC000001530812   -0.1100
24     H24    -3.8039   -2.0989    1.2340 H        1 ZINC000001530812    0.0600
25     H25    -4.7642   -2.8782   -0.0462 H        1 ZINC000001530812    0.0600
26     H26    -4.7720   -3.5461    1.6037 H        1 ZINC000001530812    0.0700
27     H27    -2.3686   -4.1153    1.3847 H        1 ZINC000001530812    0.0700
28     H28    -3.3288   -4.8946    0.1046 H        1 ZINC000001530812    0.0700
29     H29    -2.7159   -3.0740   -1.4634 H        1 ZINC000001530812    0.0900
30     H30    -1.7556   -2.2947   -0.1833 H        1 ZINC000001530812    0.0900
31     H31    -0.3203   -4.3111   -0.0325 H        1 ZINC000001530812    0.1300
32     H32    -1.2805   -5.0904   -1.3127 H        1 ZINC000001530812    0.1300
33     H33    -1.1024   -4.3481   -3.5694 H        1 ZINC000001530812    0.1300
34     H34    -1.7985   -2.8155   -2.9923 H        1 ZINC000001530812    0.1400
35     H35    -0.6236   -2.5030   -5.1543 H        1 ZINC000001530812    0.1200
36     H36     0.1811   -1.5929   -3.8523 H        1 ZINC000001530812    0.0900
37     H37     1.0208   -4.3235   -4.9316 H        1 ZINC000001530812    0.0900
38     H38     1.8643   -2.7783   -5.2037 H        1 ZINC000001530812    0.1000
39     H39     2.9112   -4.1177   -3.3658 H        1 ZINC000001530812    0.1200
40     H40     2.2853   -2.5541   -2.7877 H        1 ZINC000001530812    0.1000
41     H41     2.7417   -6.1756   -1.4149 H        1 ZINC000001530812    0.4100
42     H42     3.7009   -2.7437    0.7325 H        1 ZINC000001530812    0.0800
43     H43     5.3872   -3.2583    0.4875 H        1 ZINC000001530812    0.0700
44     H44     4.1429   -3.6862   -0.7113 H        1 ZINC000001530812    0.0500
45     H45     5.3123   -4.3010    2.7515 H        1 ZINC000001530812    0.1300
46     H46     4.8541   -6.3870    3.9743 H        1 ZINC000001530812    0.1300
47     H47     3.3466   -8.0775    3.0117 H        1 ZINC000001530812    0.1300
48     H48     1.0041   -7.7809    0.9869 H        1 ZINC000001530812    0.0700
49     H49     2.0727   -7.9289   -0.4289 H        1 ZINC000001530812    0.0600
50     H50     2.3310   -8.9673    0.9935 H        1 ZINC000001530812    0.0800
@<TRIPOS>BOND
1     1     2     1
2     1     24    1
3     1     25    1
4     1     26    1
5     2     3     1
6     2     27    1
7     2     28    1
8     3     4     1
9     3     29    1
10    3     30    1
11    4     5     1
12    4     31    1
13    4     32    1
14    5     6     1
15    5     11    1
16    5     7     1
17    7     8     1
18    7     33    1
19    7     34    1
20    8     9     1
21    8     35    1
22    8     36    1
23    9     10    1
24    9     37    1
25    9     38    1
26    10    11    1
27    10    39    1
28    10    40    1
29    11    12    1
30    11    13    1
31    13    14    2
32    13    15    am
33    15    16    1
34    15    41    1
35    16    22    ar
36    16    17    ar
37    17    18    1
38    17    19    ar
39    18    42    1
40    18    43    1
41    18    44    1
42    19    20    ar
43    19    45    1
44    20    21    ar
45    20    46    1
46    21    22    ar
47    21    47    1
48    22    23    1
49    23    48    1
50    23    49    1
51    23    50    1
@<TRIPOS>SUBSTRUCTURE
1   ZINC000001530812 1     RESIDUE    1   A     ZIN   1

@<TRIPOS>MOLECULE
ZINC000001530812
50    51    1     0     0
SMALL
USER_CHARGES
@<TRIPOS>ATOM
1      C1      3.9581    1.6936   -1.9739 C.3      1 ZINC000001530812   -0.1600
2      C2      3.2718    0.3988   -1.5341 C.3      1 ZINC000001530812   -0.1200
3      C3      3.3649   -0.6350   -2.6581 C.3      1 ZINC000001530812   -0.1400
4      C4      2.6787   -1.9298   -2.2182 C.3      1 ZINC000001530812   -0.0300
5      N5      2.7681   -2.9224   -3.2975 N.4      1 ZINC000001530812   -0.3600
6      H6      2.3853   -2.5314   -4.1452 H        1 ZINC000001530812    0.4200
7      C7      4.1749   -3.2792   -3.5167 C.3      1 ZINC000001530812   -0.0400
8      C8      4.2810   -4.2515   -4.6935 C.3      1 ZINC000001530812   -0.1400
9      C9      3.4753   -5.5152   -4.3787 C.3      1 ZINC000001530812   -0.1400
10     C10     2.0257   -5.1230   -4.0787 C.3      1 ZINC000001530812   -0.1400
11     C11     2.0046   -4.1191   -2.9240 C.3      1 ZINC000001530812    0.0100
12     H12     0.9743   -3.8373   -2.7069 H        1 ZINC000001530812    0.1600
13     C13     2.6210   -4.7481   -1.7011 C.2      1 ZINC000001530812    0.5000
14     O14     3.5666   -4.2176   -1.1575 O.2      1 ZINC000001530812   -0.5000
15     N15     2.1214   -5.9001   -1.2113 N.am     1 ZINC000001530812   -0.6400
16     C16     2.6518   -6.4504   -0.0393 C.ar     1 ZINC000001530812    0.1100
17     C17     2.9935   -7.7957    0.0051 C.ar     1 ZINC000001530812   -0.0800
18     C18     2.7940   -8.6651   -1.2095 C.3      1 ZINC000001530812   -0.1200
19     C19     3.5168   -8.3358    1.1636 C.ar     1 ZINC000001530812   -0.1100
20     C20     3.7002   -7.5387    2.2785 C.ar     1 ZINC000001530812   -0.1000
21     C21     3.3605   -6.1989    2.2376 C.ar     1 ZINC000001530812   -0.1100
22     C22     2.8430   -5.6511    1.0802 C.ar     1 ZINC000001530812   -0.0700
23     C23     2.4731   -4.1909    1.0365 C.3      1 ZINC000001530812   -0.1200
24     H24     5.0059    1.4921   -2.1963 H        1 ZINC000001530812    0.0600
25     H25     3.4655    2.0811   -2.8657 H        1 ZINC000001530812    0.0600
26     H26     3.8917    2.4302   -1.1732 H        1 ZINC000001530812    0.0700
27     H27     3.7644    0.0114   -0.6423 H        1 ZINC000001530812    0.0700
28     H28     2.2239    0.6004   -1.3117 H        1 ZINC000001530812    0.0700
29     H29     2.8723   -0.2475   -3.5499 H        1 ZINC000001530812    0.0800
30     H30     4.4128   -0.8366   -2.8804 H        1 ZINC000001530812    0.0900
31     H31     3.1713   -2.3173   -1.3265 H        1 ZINC000001530812    0.1500
32     H32     1.6308   -1.7282   -1.9959 H        1 ZINC000001530812    0.1200
33     H33     4.7476   -2.3784   -3.7375 H        1 ZINC000001530812    0.1300
34     H34     4.5737   -3.7513   -2.6188 H        1 ZINC000001530812    0.1600
35     H35     3.8826   -3.7803   -5.5920 H        1 ZINC000001530812    0.0900
36     H36     5.3261   -4.5166   -4.8535 H        1 ZINC000001530812    0.1100
37     H37     3.5011   -6.1871   -5.2366 H        1 ZINC000001530812    0.1000
38     H38     3.9050   -6.0145   -3.5102 H        1 ZINC000001530812    0.0800
39     H39     1.5805   -4.6699   -4.9645 H        1 ZINC000001530812    0.1100
40     H40     1.4587   -6.0111   -3.7994 H        1 ZINC000001530812    0.1100
41     H41     1.3941   -6.3477   -1.6714 H        1 ZINC000001530812    0.4100
42     H42     3.6564   -8.5710   -1.8693 H        1 ZINC000001530812    0.0700
43     H43     2.6859   -9.7043   -0.8987 H        1 ZINC000001530812    0.0800
44     H44     1.8952   -8.3489   -1.7390 H        1 ZINC000001530812    0.0600
45     H45     3.7827   -9.3820    1.1987 H        1 ZINC000001530812    0.1300
46     H46     4.1092   -7.9636    3.1833 H        1 ZINC000001530812    0.1300
47     H47     3.5043   -5.5791    3.1103 H        1 ZINC000001530812    0.1300
48     H48     3.2889   -3.6226    0.5897 H        1 ZINC000001530812    0.1000
49     H49     1.5707   -4.0624    0.4387 H        1 ZINC000001530812    0.0500
50     H50     2.2921   -3.8315    2.0495 H        1 ZINC000001530812    0.0700
@<TRIPOS>BOND
1     1     2     1
2     1     24    1
3     1     25    1
4     1     26    1
5     2     3     1
6     2     27    1
7     2     28    1
8     3     4     1
9     3     29    1
10    3     30    1
11    4     5     1
12    4     31    1
13    4     32    1
14    5     6     1
15    5     11    1
16    5     7     1
17    7     8     1
18    7     33    1
19    7     34    1
20    8     9     1
21    8     35    1
22    8     36    1
23    9     10    1
24    9     37    1
25    9     38    1
26    10    11    1
27    10    39    1
28    10    40    1
29    11    12    1
30    11    13    1
31    13    14    2
32    13    15    am
33    15    16    1
34    15    41    1
35    16    22    ar
36    16    17    ar
37    17    18    1
38    17    19    ar
39    18    42    1
40    18    43    1
41    18    44    1
42    19    20    ar
43    19    45    1
44    20    21    ar
45    20    46    1
46    21    22    ar
47    21    47    1
48    22    23    1
49    23    48    1
50    23    49    1
51    23    50    1
@<TRIPOS>SUBSTRUCTURE
1   ZINC000001530812 1     RESIDUE    1   A     ZIN   1

@<TRIPOS>MOLECULE
ZINC000001530812
49    50    1     0     0
SMALL
USER_CHARGES
@<TRIPOS>ATOM
1      C1     -4.7037   -2.1407   -0.1096 C.3      1 ZINC000001530812   -0.1500
2      C2     -3.5939   -3.1817   -0.2691 C.3      1 ZINC000001530812   -0.1200
3      C3     -2.4968   -2.6226   -1.1772 C.3      1 ZINC000001530812   -0.1200
4      C4     -1.3870   -3.6637   -1.3367 C.3      1 ZINC000001530812    0.0500
5      N5     -0.3336   -3.1269   -2.2086 N.3      1 ZINC000001530812   -0.5100
6      C6     -0.8988   -2.6182   -3.4648 C.3      1 ZINC000001530812    0.0500
7      C7      0.2016   -1.9378   -4.2823 C.3      1 ZINC000001530812   -0.1200
8      C8      1.3136   -2.9493   -4.5737 C.3      1 ZINC000001530812   -0.1200
9      C9      1.8519   -3.4997   -3.2502 C.3      1 ZINC000001530812   -0.1100
10     C10     0.7036   -4.1348   -2.4627 C.3      1 ZINC000001530812    0.0700
11     H11     0.2784   -4.9562   -3.0394 H        1 ZINC000001530812    0.0600
12     C12     1.2252   -4.6602   -1.1500 C.2      1 ZINC000001530812    0.5200
13     O13     1.2105   -3.9529   -0.1649 O.2      1 ZINC000001530812   -0.4900
14     N14     1.7080   -5.9160   -1.0708 N.am     1 ZINC000001530812   -0.6800
15     C15     2.0848   -6.4438    0.1691 C.ar     1 ZINC000001530812    0.1300
16     C16     3.0333   -5.7898    0.9444 C.ar     1 ZINC000001530812   -0.0700
17     C17     3.6580   -4.5099    0.4517 C.3      1 ZINC000001530812   -0.1100
18     C18     3.4032   -6.3133    2.1678 C.ar     1 ZINC000001530812   -0.1200
19     C19     2.8304   -7.4877    2.6206 C.ar     1 ZINC000001530812   -0.1100
20     C20     1.8860   -8.1416    1.8507 C.ar     1 ZINC000001530812   -0.1200
21     C21     1.5070   -7.6197    0.6294 C.ar     1 ZINC000001530812   -0.0900
22     C22     0.4777   -8.3329   -0.2090 C.3      1 ZINC000001530812   -0.1100
23     H23    -4.2910   -1.2348    0.3345 H        1 ZINC000001530812    0.0600
24     H24    -5.1254   -1.9065   -1.0871 H        1 ZINC000001530812    0.0500
25     H25    -5.4853   -2.5390    0.5373 H        1 ZINC000001530812    0.0500
26     H26    -3.1722   -3.4159    0.7084 H        1 ZINC000001530812    0.0600
27     H27    -4.0065   -4.0876   -0.7132 H        1 ZINC000001530812    0.0600
28     H28    -2.9185   -2.3884   -2.1547 H        1 ZINC000001530812    0.0600
29     H29    -2.0841   -1.7168   -0.7331 H        1 ZINC000001530812    0.0700
30     H30    -0.9653   -3.8979   -0.3592 H        1 ZINC000001530812    0.0900
31     H31    -1.7996   -4.5695   -1.7808 H        1 ZINC000001530812    0.0300
32     H32    -1.3166   -3.4467   -4.0369 H        1 ZINC000001530812    0.0300
33     H33    -1.6854   -1.8968   -3.2434 H        1 ZINC000001530812    0.0900
34     H34    -0.2149   -1.5741   -5.2216 H        1 ZINC000001530812    0.0700
35     H35     0.6104   -1.1006   -3.7164 H        1 ZINC000001530812    0.0700
36     H36     0.9138   -3.7676   -5.1728 H        1 ZINC000001530812    0.0600
37     H37     2.1196   -2.4578   -5.1185 H        1 ZINC000001530812    0.0700
38     H38     2.6145   -4.2519   -3.4521 H        1 ZINC000001530812    0.0700
39     H39     2.2867   -2.6871   -2.6681 H        1 ZINC000001530812    0.0800
40     H40     1.7942   -6.4540   -1.8734 H        1 ZINC000001530812    0.4100
41     H41     3.1329   -3.6589    0.8854 H        1 ZINC000001530812    0.0900
42     H42     4.7064   -4.4796    0.7485 H        1 ZINC000001530812    0.0600
43     H43     3.5866   -4.4656   -0.6350 H        1 ZINC000001530812    0.0600
44     H44     4.1408   -5.8052    2.7713 H        1 ZINC000001530812    0.1300
45     H45     3.1216   -7.8953    3.5774 H        1 ZINC000001530812    0.1200
46     H46     1.4410   -9.0589    2.2068 H        1 ZINC000001530812    0.1300
47     H47    -0.5168   -7.9692    0.0494 H        1 ZINC000001530812    0.0700
48     H48     0.6721   -8.1407   -1.2642 H        1 ZINC000001530812    0.0600
49     H49     0.5334   -9.4047   -0.0187 H        1 ZINC000001530812    0.0700
@<TRIPOS>BOND
1     1     2     1
2     1     23    1
3     1     24    1
4     1     25    1
5     2     3     1
6     2     26    1
7     2     27    1
8     3     4     1
9     3     28    1
10    3     29    1
11    4     5     1
12    4     30    1
13    4     31    1
14    5     10    1
15    5     6     1
16    6     7     1
17    6     32    1
18    6     33    1
19    7     8     1
20    7     34    1
21    7     35    1
22    8     9     1
23    8     36    1
24    8     37    1
25    9     10    1
26    9     38    1
27    9     39    1
28    10    11    1
29    10    12    1
30    12    13    2
31    12    14    am
32    14    15    1
33    14    40    1
34    15    21    ar
35    15    16    ar
36    16    17    1
37    16    18    ar
38    17    41    1
39    17    42    1
40    17    43    1
41    18    19    ar
42    18    44    1
43    19    20    ar
44    19    45    1
45    20    21    ar
46    20    46    1
47    21    22    1
48    22    47    1
49    22    48    1
50    22    49    1
@<TRIPOS>SUBSTRUCTURE
1   ZINC000001530812 1     RESIDUE    1   A     ZIN   1
