@<TRIPOS>MOLECULE
ZINC000000002299
36    39    1     0     0
SMALL
USER_CHARGES
@<TRIPOS>ATOM
1      C1     -0.0178    1.4648    0.0101 C.3      1 ZINC000000002299    0.0200
2      N2      0.0021   -0.0041    0.0020 N.3      1 ZINC000000002299   -0.5300
3      C3     -1.3799   -0.5561   -0.0054 C.3      1 ZINC000000002299    0.0500
4      C4     -1.2704   -1.8360    0.8386 C.3      1 ZINC000000002299   -0.0600
5      H5     -0.8060   -2.6126    0.2309 H        1 ZINC000000002299    0.1000
6      C6     -2.5436   -2.3568    1.3794 C.ar     1 ZINC000000002299   -0.1000
7      C7     -3.7494   -1.7118    1.1939 C.ar     1 ZINC000000002299   -0.1000
8      C8     -4.9037   -2.2308    1.7528 C.ar     1 ZINC000000002299   -0.1200
9      C9     -4.8536   -3.3932    2.4997 C.ar     1 ZINC000000002299   -0.1000
10     C10    -3.6503   -4.0504    2.6778 C.ar     1 ZINC000000002299   -0.1200
11     C11    -2.4975   -3.5412    2.1041 C.ar     1 ZINC000000002299    0.1100
12     O12    -1.3222   -4.1959    2.1737 O.3      1 ZINC000000002299   -0.2800
13     C13    -0.2398   -3.7738    2.8544 C.ar     1 ZINC000000002299    0.1400
14     C14     0.3853   -4.7158    3.6740 C.ar     1 ZINC000000002299   -0.1200
15     C15     1.4856   -4.3815    4.4305 C.ar     1 ZINC000000002299   -0.0900
16     C16     1.9786   -3.0897    4.3785 C.ar     1 ZINC000000002299   -0.0500
17     Cl17    3.3570   -2.6448    5.3354 Cl       1 ZINC000000002299   -0.0600
18     C18     1.3723   -2.1578    3.5656 C.ar     1 ZINC000000002299   -0.0900
19     C19     0.2638   -2.4843    2.7846 C.ar     1 ZINC000000002299   -0.1000
20     C20    -0.2926   -1.4231    1.9191 C.3      1 ZINC000000002299   -0.0600
21     H21    -0.8535   -0.7594    2.5771 H        1 ZINC000000002299    0.0700
22     C22     0.7139   -0.5332    1.1932 C.3      1 ZINC000000002299    0.0500
23     H23     1.0047    1.8421    0.0024 H        1 ZINC000000002299    0.0700
24     H24    -0.5450    1.8259   -0.8730 H        1 ZINC000000002299    0.0700
25     H25    -0.5280    1.8163    0.9069 H        1 ZINC000000002299    0.0300
26     H26    -2.0750    0.1467    0.4540 H        1 ZINC000000002299    0.0600
27     H27    -1.6913   -0.7941   -1.0225 H        1 ZINC000000002299    0.0900
28     H28    -3.7919   -0.8022    0.6132 H        1 ZINC000000002299    0.1300
29     H29    -5.8472   -1.7265    1.6048 H        1 ZINC000000002299    0.1300
30     H30    -5.7550   -3.7879    2.9447 H        1 ZINC000000002299    0.1300
31     H31    -3.6097   -4.9579    3.2619 H        1 ZINC000000002299    0.1300
32     H32    -0.0013   -5.7234    3.7153 H        1 ZINC000000002299    0.1400
33     H33     1.9595   -5.1207    5.0593 H        1 ZINC000000002299    0.1400
34     H34     1.7638   -1.1518    3.5324 H        1 ZINC000000002299    0.1400
35     H35     1.5745   -1.1214    0.8746 H        1 ZINC000000002299    0.0900
36     H36     1.0340    0.2806    1.8438 H        1 ZINC000000002299    0.0700
@<TRIPOS>BOND
1     1     2     1
2     1     23    1
3     1     24    1
4     1     25    1
5     2     22    1
6     2     3     1
7     3     4     1
8     3     26    1
9     3     27    1
10    4     5     1
11    4     20    1
12    4     6     1
13    6     11    ar
14    6     7     ar
15    7     8     ar
16    7     28    1
17    8     9     ar
18    8     29    1
19    9     10    ar
20    9     30    1
21    10    11    ar
22    10    31    1
23    11    12    1
24    12    13    1
25    13    19    ar
26    13    14    ar
27    14    15    ar
28    14    32    1
29    15    16    ar
30    15    33    1
31    16    17    1
32    16    18    ar
33    18    19    ar
34    18    34    1
35    19    20    1
36    20    21    1
37    20    22    1
38    22    35    1
39    22    36    1
@<TRIPOS>SUBSTRUCTURE
1   ZINC000000002299 1     RESIDUE    1   A     ZIN   1

@<TRIPOS>MOLECULE
ZINC000000002299
37    40    1     0     0
SMALL
USER_CHARGES
@<TRIPOS>ATOM
1      C1     -0.0178    1.4648    0.0101 C.3      1 ZINC000000002299   -0.0500
2      N2      0.0021   -0.0041    0.0020 N.4      1 ZINC000000002299   -0.4000
3      H3      0.4620   -0.3338   -0.8333 H        1 ZINC000000002299    0.4300
4      C4     -1.3914   -0.5244    0.0455 C.3      1 ZINC000000002299    0.0000
5      C5     -1.2919   -1.7715    0.9383 C.3      1 ZINC000000002299   -0.0600
6      H6     -0.8577   -2.5823    0.3533 H        1 ZINC000000002299    0.1100
7      C7     -2.5643   -2.2411    1.5259 C.ar     1 ZINC000000002299   -0.1200
8      C8     -3.7594   -1.5768    1.3392 C.ar     1 ZINC000000002299   -0.1000
9      C9     -4.9125   -2.0467    1.9423 C.ar     1 ZINC000000002299   -0.1100
10     C10    -4.8717   -3.1784    2.7354 C.ar     1 ZINC000000002299   -0.0800
11     C11    -3.6795   -3.8552    2.9152 C.ar     1 ZINC000000002299   -0.1100
12     C12    -2.5286   -3.3962    2.2970 C.ar     1 ZINC000000002299    0.1200
13     O13    -1.3667   -4.0742    2.3690 O.3      1 ZINC000000002299   -0.2800
14     C14    -0.2606   -3.6495    3.0089 C.ar     1 ZINC000000002299    0.1400
15     C15     0.3613   -4.5713    3.8534 C.ar     1 ZINC000000002299   -0.1200
16     C16     1.4850   -4.2316    4.5723 C.ar     1 ZINC000000002299   -0.0700
17     C17     2.0050   -2.9546    4.4566 C.ar     1 ZINC000000002299   -0.0400
18     Cl18    3.4141   -2.5030    5.3645 Cl       1 ZINC000000002299   -0.0500
19     C19     1.4017   -2.0431    3.6188 C.ar     1 ZINC000000002299   -0.0900
20     C20     0.2695   -2.3758    2.8754 C.ar     1 ZINC000000002299   -0.1200
21     C21    -0.2824   -1.3379    1.9808 C.3      1 ZINC000000002299   -0.0600
22     H22    -0.8142   -0.6364    2.6235 H        1 ZINC000000002299    0.1000
23     C23     0.7249   -0.5011    1.2004 C.3      1 ZINC000000002299    0.0000
24     H24     1.0047    1.8421    0.0024 H        1 ZINC000000002299    0.1300
25     H25    -0.5450    1.8259   -0.8730 H        1 ZINC000000002299    0.1300
26     H26    -0.5280    1.8163    0.9069 H        1 ZINC000000002299    0.1200
27     H27    -2.0610    0.2118    0.4901 H        1 ZINC000000002299    0.1400
28     H28    -1.7297   -0.7959   -0.9545 H        1 ZINC000000002299    0.1500
29     H29    -3.7945   -0.6906    0.7230 H        1 ZINC000000002299    0.1300
30     H30    -5.8477   -1.5274    1.7934 H        1 ZINC000000002299    0.1400
31     H31    -5.7716   -3.5340    3.2150 H        1 ZINC000000002299    0.1400
32     H32    -3.6460   -4.7387    3.5354 H        1 ZINC000000002299    0.1400
33     H33    -0.0463   -5.5673    3.9444 H        1 ZINC000000002299    0.1500
34     H34     1.9562   -4.9552    5.2210 H        1 ZINC000000002299    0.1500
35     H35     1.8143   -1.0484    3.5359 H        1 ZINC000000002299    0.1400
36     H36     1.5657   -1.1201    0.8873 H        1 ZINC000000002299    0.1400
37     H37     1.0764    0.3304    1.8113 H        1 ZINC000000002299    0.1400
@<TRIPOS>BOND
1     1     2     1
2     1     24    1
3     1     25    1
4     1     26    1
5     2     3     1
6     2     23    1
7     2     4     1
8     4     5     1
9     4     27    1
10    4     28    1
11    5     6     1
12    5     21    1
13    5     7     1
14    7     12    ar
15    7     8     ar
16    8     9     ar
17    8     29    1
18    9     10    ar
19    9     30    1
20    10    11    ar
21    10    31    1
22    11    12    ar
23    11    32    1
24    12    13    1
25    13    14    1
26    14    20    ar
27    14    15    ar
28    15    16    ar
29    15    33    1
30    16    17    ar
31    16    34    1
32    17    18    1
33    17    19    ar
34    19    20    ar
35    19    35    1
36    20    21    1
37    21    22    1
38    21    23    1
39    23    36    1
40    23    37    1
@<TRIPOS>SUBSTRUCTURE
1   ZINC000000002299 1     RESIDUE    1   A     ZIN   1

@<TRIPOS>MOLECULE
ZINC000000002299
37    40    1     0     0
SMALL
USER_CHARGES
@<TRIPOS>ATOM
1      C1     -0.0178    1.4648    0.0101 C.3      1 ZINC000000002299   -0.0500
2      N2      0.0021   -0.0041    0.0020 N.4      1 ZINC000000002299   -0.4000
3      H3     -0.9430   -0.3574   -0.0042 H        1 ZINC000000002299    0.4300
4      C4      0.7244   -0.4876   -1.2016 C.3      1 ZINC000000002299    0.0000
5      C5      1.9212   -1.2867   -0.6830 C.3      1 ZINC000000002299   -0.0600
6      H6      2.7511   -0.5909   -0.5597 H        1 ZINC000000002299    0.1100
7      C7      2.3897   -2.3990   -1.5326 C.ar     1 ZINC000000002299   -0.1200
8      C8      1.7230   -2.8006   -2.6721 C.ar     1 ZINC000000002299   -0.1000
9      C9      2.1954   -3.8731   -3.4073 C.ar     1 ZINC000000002299   -0.1100
10     C10     3.3330   -4.5471   -3.0034 C.ar     1 ZINC000000002299   -0.0800
11     C11     4.0129   -4.1404   -1.8701 C.ar     1 ZINC000000002299   -0.1100
12     C12     3.5505   -3.0569   -1.1433 C.ar     1 ZINC000000002299    0.1200
13     O13     4.2283   -2.5677   -0.0868 O.3      1 ZINC000000002299   -0.2800
14     C14     3.8089   -2.6128    1.1919 C.ar     1 ZINC000000002299    0.1500
15     C15     4.7382   -3.0594    2.1339 C.ar     1 ZINC000000002299   -0.1200
16     C16     4.4062   -3.1658    3.4655 C.ar     1 ZINC000000002299   -0.0700
17     C17     3.1296   -2.8254    3.8767 C.ar     1 ZINC000000002299   -0.0400
18     Cl18    2.6877   -2.9644    5.5497 Cl       1 ZINC000000002299   -0.0500
19     C19     2.2108   -2.3755    2.9546 C.ar     1 ZINC000000002299   -0.0900
20     C20     2.5358   -2.2523    1.6039 C.ar     1 ZINC000000002299   -0.1200
21     C21     1.4873   -1.7240    0.7008 C.3      1 ZINC000000002299   -0.0600
22     H22     0.7574   -2.5210    0.5585 H        1 ZINC000000002299    0.1000
23     C23     0.7155   -0.5023    1.2098 C.3      1 ZINC000000002299    0.0000
24     H24     1.0047    1.8421    0.0024 H        1 ZINC000000002299    0.1200
25     H25    -0.5450    1.8259   -0.8730 H        1 ZINC000000002299    0.1300
26     H26    -0.5280    1.8163    0.9069 H        1 ZINC000000002299    0.1300
27     H27     0.0744   -1.1288   -1.7970 H        1 ZINC000000002299    0.1400
28     H28     1.0675    0.3576   -1.7982 H        1 ZINC000000002299    0.1400
29     H29     0.8327   -2.2782   -2.9896 H        1 ZINC000000002299    0.1300
30     H30     1.6739   -4.1848   -4.3002 H        1 ZINC000000002299    0.1400
31     H31     3.6910   -5.3915   -3.5736 H        1 ZINC000000002299    0.1400
32     H32     4.9010   -4.6667   -1.5528 H        1 ZINC000000002299    0.1400
33     H33     5.7340   -3.3262    1.8121 H        1 ZINC000000002299    0.1500
34     H34     5.1354   -3.5121    4.1829 H        1 ZINC000000002299    0.1500
35     H35     1.2167   -2.1127    3.2846 H        1 ZINC000000002299    0.1400
36     H36     1.4031    0.2579    1.5806 H        1 ZINC000000002299    0.1400
37     H37     0.0084   -0.7924    1.9869 H        1 ZINC000000002299    0.1500
@<TRIPOS>BOND
1     1     2     1
2     1     24    1
3     1     25    1
4     1     26    1
5     2     3     1
6     2     23    1
7     2     4     1
8     4     5     1
9     4     27    1
10    4     28    1
11    5     6     1
12    5     21    1
13    5     7     1
14    7     12    ar
15    7     8     ar
16    8     9     ar
17    8     29    1
18    9     10    ar
19    9     30    1
20    10    11    ar
21    10    31    1
22    11    12    ar
23    11    32    1
24    12    13    1
25    13    14    1
26    14    20    ar
27    14    15    ar
28    15    16    ar
29    15    33    1
30    16    17    ar
31    16    34    1
32    17    18    1
33    17    19    ar
34    19    20    ar
35    19    35    1
36    20    21    1
37    21    22    1
38    21    23    1
39    23    36    1
40    23    37    1
@<TRIPOS>SUBSTRUCTURE
1   ZINC000000002299 1     RESIDUE    1   A     ZIN   1
